1



                                 *********************************************

                                    NUMERICAL ELECTROMAGNETICS CODE (NEC-2D)

                                 *********************************************




                                     - - - - COMMENTS - - - -


                          Test,,,,,,,,                                                               
                                                                                                     




                                 - - - STRUCTURE SPECIFICATION - - -

                                     COORDINATES MUST BE INPUT IN
                                     METERS OR BE SCALED TO METERS
                                     BEFORE STRUCTURE INPUT IS ENDED


  WIRE                                                                               NO. OF    FIRST  LAST     TAG
  NO.        X1         Y1         Z1          X2         Y2         Z2      RADIUS   SEG.     SEG.   SEG.     NO.
     1   -3.30000    0.00000   10.00000    -3.24987    0.00000    9.42696    0.00100      3        1     3       1
     2   -3.24987    0.00000    9.42696    -3.10099    0.00000    8.87133    0.00100      3        4     6       2
     3   -3.10099    0.00000    8.87133    -2.85788    0.00000    8.35000    0.00100      3        7     9       3
     4   -2.85788    0.00000    8.35000    -2.52795    0.00000    7.87880    0.00100      3       10    12       4
     5   -2.52795    0.00000    7.87880    -2.12120    0.00000    7.47205    0.00100      3       13    15       5
     6   -2.12120    0.00000    7.47205    -1.65000    0.00000    7.14212    0.00100      3       16    18       6
     7   -1.65000    0.00000    7.14212    -1.12867    0.00000    6.89901    0.00100      3       19    21       7
     8   -1.12867    0.00000    6.89901    -0.57304    0.00000    6.75013    0.00100      3       22    24       8
     9   -0.57304    0.00000    6.75013     0.00000    0.00000    6.70000    0.00100      3       25    27       9
    10    0.00000    0.00000    6.70000     0.57304    0.00000    6.75013    0.00100      3       28    30      10
    11    0.57304    0.00000    6.75013     1.12867    0.00000    6.89901    0.00100      3       31    33      11
    12    1.12867    0.00000    6.89901     1.65000    0.00000    7.14212    0.00100      3       34    36      12
    13    1.65000    0.00000    7.14212     2.12120    0.00000    7.47205    0.00100      3       37    39      13
    14    2.12120    0.00000    7.47205     2.52795    0.00000    7.87880    0.00100      3       40    42      14
    15    2.52795    0.00000    7.87880     2.85788    0.00000    8.35000    0.00100      3       43    45      15
    16    2.85788    0.00000    8.35000     3.10099    0.00000    8.87133    0.00100      3       46    48      16
    17    3.10099    0.00000    8.87133     3.24987    0.00000    9.42696    0.00100      3       49    51      17
    18    3.24987    0.00000    9.42696     3.30000    0.00000   10.00000    0.00100      3       52    54      18
    19    3.30000    0.00000   10.00000     3.60000    0.00000   10.00000    0.00100      1       55    55      19
    20    3.60000    0.00000   10.00000     3.65013    0.00000    9.42696    0.00100      3       56    58      20
    21    3.65013    0.00000    9.42696     3.79901    0.00000    8.87133    0.00100      3       59    61      21
    22    3.79901    0.00000    8.87133     4.04212    0.00000    8.35000    0.00100      3       62    64      22
    23    4.04212    0.00000    8.35000     4.37205    0.00000    7.87880    0.00100      3       65    67      23
    24    4.37205    0.00000    7.87880     4.77880    0.00000    7.47205    0.00100      3       68    70      24
    25    4.77880    0.00000    7.47205     5.25000    0.00000    7.14212    0.00100      3       71    73      25
    26    5.25000    0.00000    7.14212     5.77133    0.00000    6.89901    0.00100      3       74    76      26
    27    5.77133    0.00000    6.89901     6.32696    0.00000    6.75013    0.00100      3       77    79      27
    28    6.32696    0.00000    6.75013     6.90000    0.00000    6.70000    0.00100      3       80    82      28
    29    6.90000    0.00000    6.70000     7.47304    0.00000    6.75013    0.00100      3       83    85      29
    30    7.47304    0.00000    6.75013     8.02867    0.00000    6.89901    0.00100      3       86    88      30
    31    8.02867    0.00000    6.89901     8.55000    0.00000    7.14212    0.00100      3       89    91      31
    32    8.55000    0.00000    7.14212     9.02120    0.00000    7.47205    0.00100      3       92    94      32
    33    9.02120    0.00000    7.47205     9.42795    0.00000    7.87880    0.00100      3       95    97      33
    34    9.42795    0.00000    7.87880     9.75788    0.00000    8.35000    0.00100      3       98   100      34
    35    9.75788    0.00000    8.35000    10.00099    0.00000    8.87133    0.00100      3      101   103      35
    36   10.00099    0.00000    8.87133    10.14987    0.00000    9.42696    0.00100      3      104   106      36
    37   10.14987    0.00000    9.42696    10.20000    0.00000   10.00000    0.00100      3      107   109      37

   TOTAL SEGMENTS USED=  109     NO. SEG. IN A SYMMETRIC CELL=  109     SYMMETRY FLAG=  0


         - MULTIPLE WIRE JUNCTIONS -
 JUNCTION    SEGMENTS  (- FOR END 1, + FOR END 2)
  NONE




                                 - - - - SEGMENTATION DATA - - - -

                                        COORDINATES IN METERS

                         I+ AND I- INDICATE THE SEGMENTS BEFORE AND AFTER I


  SEG.   COORDINATES OF SEG. CENTER     SEG.     ORIENTATION ANGLES    WIRE    CONNECTION DATA   TAG
  NO.       X         Y         Z       LENGTH     ALPHA     BETA      RADIUS    I-   I    I+    NO.
     1  -3.29164   0.00000   9.90449   0.19174  -85.00004   0.00000   0.00100     0    1    2      1
     2  -3.27493   0.00000   9.71348   0.19174  -85.00004   0.00000   0.00100     1    2    3      1
     3  -3.25822   0.00000   9.52247   0.19174  -85.00004   0.00000   0.00100     2    3    4      1
     4  -3.22505   0.00000   9.33436   0.19174  -74.99999   0.00000   0.00100     3    4    5      2
     5  -3.17543   0.00000   9.14915   0.19174  -74.99999   0.00000   0.00100     4    5    6      2
     6  -3.12580   0.00000   8.96394   0.19174  -74.99999   0.00000   0.00100     5    6    7      2
     7  -3.06047   0.00000   8.78444   0.19174  -64.99998   0.00000   0.00100     6    7    8      3
     8  -2.97943   0.00000   8.61067   0.19174  -64.99998   0.00000   0.00100     7    8    9      3
     9  -2.89840   0.00000   8.43689   0.19174  -64.99998   0.00000   0.00100     8    9   10      3
    10  -2.80289   0.00000   8.27147   0.19174  -55.00001   0.00000   0.00100     9   10   11      4
    11  -2.69292   0.00000   8.11440   0.19174  -55.00001   0.00000   0.00100    10   11   12      4
    12  -2.58294   0.00000   7.95733   0.19174  -55.00001   0.00000   0.00100    11   12   13      4
    13  -2.46016   0.00000   7.81101   0.19174  -44.99997   0.00000   0.00100    12   13   14      5
    14  -2.32457   0.00000   7.67543   0.19174  -44.99997   0.00000   0.00100    13   14   15      5
    15  -2.18899   0.00000   7.53984   0.19174  -44.99997   0.00000   0.00100    14   15   16      5
    16  -2.04267   0.00000   7.41706   0.19174  -35.00000   0.00000   0.00100    15   16   17      6
    17  -1.88560   0.00000   7.30708   0.19174  -35.00000   0.00000   0.00100    16   17   18      6
    18  -1.72853   0.00000   7.19711   0.19174  -35.00000   0.00000   0.00100    17   18   19      6
    19  -1.56311   0.00000   7.10160   0.19174  -24.99998   0.00000   0.00100    18   19   20      7
    20  -1.38933   0.00000   7.02057   0.19174  -24.99998   0.00000   0.00100    19   20   21      7
    21  -1.21555   0.00000   6.93953   0.19174  -24.99998   0.00000   0.00100    20   21   22      7
    22  -1.03606   0.00000   6.87420   0.19174  -15.00002   0.00000   0.00100    21   22   23      8
    23  -0.85085   0.00000   6.82457   0.19174  -15.00002   0.00000   0.00100    22   23   24      8
    24  -0.66564   0.00000   6.77495   0.19174  -15.00002   0.00000   0.00100    23   24   25      8
    25  -0.47753   0.00000   6.74178   0.19174   -5.00000   0.00000   0.00100    24   25   26      9
    26  -0.28652   0.00000   6.72507   0.19174   -5.00000   0.00000   0.00100    25   26   27      9
    27  -0.09551   0.00000   6.70836   0.19174   -5.00000   0.00000   0.00100    26   27   28      9
    28   0.09551   0.00000   6.70836   0.19174    5.00000   0.00000   0.00100    27   28   29     10
    29   0.28652   0.00000   6.72507   0.19174    5.00000   0.00000   0.00100    28   29   30     10
    30   0.47753   0.00000   6.74178   0.19174    5.00000   0.00000   0.00100    29   30   31     10
    31   0.66564   0.00000   6.77495   0.19174   15.00001   0.00000   0.00100    30   31   32     11
    32   0.85085   0.00000   6.82457   0.19174   15.00001   0.00000   0.00100    31   32   33     11
    33   1.03606   0.00000   6.87420   0.19174   15.00001   0.00000   0.00100    32   33   34     11
    34   1.21556   0.00000   6.93953   0.19174   25.00000   0.00000   0.00100    33   34   35     12
    35   1.38933   0.00000   7.02057   0.19174   25.00000   0.00000   0.00100    34   35   36     12
    36   1.56311   0.00000   7.10160   0.19174   25.00000   0.00000   0.00100    35   36   37     12
    37   1.72853   0.00000   7.19711   0.19174   34.99999   0.00000   0.00100    36   37   38     13
    38   1.88560   0.00000   7.30708   0.19174   34.99999   0.00000   0.00100    37   38   39     13
    39   2.04267   0.00000   7.41706   0.19174   34.99999   0.00000   0.00100    38   39   40     13
    40   2.18899   0.00000   7.53984   0.19174   45.00000   0.00000   0.00100    39   40   41     14
    41   2.32457   0.00000   7.67543   0.19174   45.00000   0.00000   0.00100    40   41   42     14
    42   2.46016   0.00000   7.81101   0.19174   45.00000   0.00000   0.00100    41   42   43     14
    43   2.58294   0.00000   7.95733   0.19174   55.00001   0.00000   0.00100    42   43   44     15
    44   2.69292   0.00000   8.11440   0.19174   55.00001   0.00000   0.00100    43   44   45     15
    45   2.80289   0.00000   8.27147   0.19174   55.00001   0.00000   0.00100    44   45   46     15
    46   2.89840   0.00000   8.43689   0.19174   65.00000   0.00000   0.00100    45   46   47     16
    47   2.97943   0.00000   8.61067   0.19174   65.00000   0.00000   0.00100    46   47   48     16
    48   3.06047   0.00000   8.78444   0.19174   65.00000   0.00000   0.00100    47   48   49     16
    49   3.12580   0.00000   8.96394   0.19174   74.99999   0.00000   0.00100    48   49   50     17
    50   3.17543   0.00000   9.14915   0.19174   74.99999   0.00000   0.00100    49   50   51     17
    51   3.22505   0.00000   9.33436   0.19174   74.99999   0.00000   0.00100    50   51   52     17
    52   3.25822   0.00000   9.52247   0.19174   85.00000   0.00000   0.00100    51   52   53     18
    53   3.27493   0.00000   9.71348   0.19174   85.00000   0.00000   0.00100    52   53   54     18
    54   3.29164   0.00000   9.90449   0.19174   85.00000   0.00000   0.00100    53   54   55     18
    55   3.45000   0.00000  10.00000   0.30000    0.00000   0.00000   0.00100    54   55   56     19
    56   3.60836   0.00000   9.90449   0.19174  -85.00000   0.00000   0.00100    55   56   57     20
    57   3.62507   0.00000   9.71348   0.19174  -85.00000   0.00000   0.00100    56   57   58     20
    58   3.64178   0.00000   9.52247   0.19174  -85.00000   0.00000   0.00100    57   58   59     20
    59   3.67495   0.00000   9.33436   0.19174  -74.99999   0.00000   0.00100    58   59   60     21
    60   3.72457   0.00000   9.14915   0.19174  -74.99999   0.00000   0.00100    59   60   61     21
    61   3.77420   0.00000   8.96394   0.19174  -74.99999   0.00000   0.00100    60   61   62     21
    62   3.83953   0.00000   8.78444   0.19174  -65.00000   0.00000   0.00100    61   62   63     22
    63   3.92057   0.00000   8.61067   0.19174  -65.00000   0.00000   0.00100    62   63   64     22
    64   4.00160   0.00000   8.43689   0.19174  -65.00000   0.00000   0.00100    63   64   65     22
    65   4.09711   0.00000   8.27147   0.19174  -55.00001   0.00000   0.00100    64   65   66     23
    66   4.20708   0.00000   8.11440   0.19174  -55.00001   0.00000   0.00100    65   66   67     23
    67   4.31706   0.00000   7.95733   0.19174  -55.00001   0.00000   0.00100    66   67   68     23
    68   4.43984   0.00000   7.81101   0.19174  -45.00000   0.00000   0.00100    67   68   69     24
    69   4.57543   0.00000   7.67543   0.19174  -45.00000   0.00000   0.00100    68   69   70     24
    70   4.71101   0.00000   7.53984   0.19174  -45.00000   0.00000   0.00100    69   70   71     24
    71   4.85733   0.00000   7.41706   0.19174  -34.99999   0.00000   0.00100    70   71   72     25
    72   5.01440   0.00000   7.30708   0.19174  -34.99999   0.00000   0.00100    71   72   73     25
    73   5.17147   0.00000   7.19711   0.19174  -34.99999   0.00000   0.00100    72   73   74     25
    74   5.33689   0.00000   7.10160   0.19174  -25.00000   0.00000   0.00100    73   74   75     26
    75   5.51067   0.00000   7.02057   0.19174  -25.00000   0.00000   0.00100    74   75   76     26
    76   5.68444   0.00000   6.93953   0.19174  -25.00000   0.00000   0.00100    75   76   77     26
    77   5.86394   0.00000   6.87420   0.19174  -15.00001   0.00000   0.00100    76   77   78     27
    78   6.04915   0.00000   6.82457   0.19174  -15.00001   0.00000   0.00100    77   78   79     27
    79   6.23436   0.00000   6.77495   0.19174  -15.00001   0.00000   0.00100    78   79   80     27
    80   6.42247   0.00000   6.74178   0.19174   -5.00000   0.00000   0.00100    79   80   81     28
    81   6.61348   0.00000   6.72507   0.19174   -5.00000   0.00000   0.00100    80   81   82     28
    82   6.80449   0.00000   6.70836   0.19174   -5.00000   0.00000   0.00100    81   82   83     28
    83   6.99551   0.00000   6.70836   0.19174    5.00000   0.00000   0.00100    82   83   84     29
    84   7.18652   0.00000   6.72507   0.19174    5.00000   0.00000   0.00100    83   84   85     29
    85   7.37753   0.00000   6.74178   0.19174    5.00000   0.00000   0.00100    84   85   86     29
    86   7.56564   0.00000   6.77495   0.19174   15.00001   0.00000   0.00100    85   86   87     30
    87   7.75085   0.00000   6.82457   0.19174   15.00001   0.00000   0.00100    86   87   88     30
    88   7.93606   0.00000   6.87420   0.19174   15.00001   0.00000   0.00100    87   88   89     30
    89   8.11556   0.00000   6.93953   0.19174   25.00000   0.00000   0.00100    88   89   90     31
    90   8.28933   0.00000   7.02057   0.19174   25.00000   0.00000   0.00100    89   90   91     31
    91   8.46311   0.00000   7.10160   0.19174   25.00000   0.00000   0.00100    90   91   92     31
    92   8.62853   0.00000   7.19711   0.19174   34.99999   0.00000   0.00100    91   92   93     32
    93   8.78560   0.00000   7.30708   0.19174   34.99999   0.00000   0.00100    92   93   94     32
    94   8.94267   0.00000   7.41706   0.19174   34.99999   0.00000   0.00100    93   94   95     32
    95   9.08899   0.00000   7.53984   0.19174   45.00000   0.00000   0.00100    94   95   96     33
    96   9.22457   0.00000   7.67543   0.19174   45.00000   0.00000   0.00100    95   96   97     33
    97   9.36016   0.00000   7.81101   0.19174   45.00000   0.00000   0.00100    96   97   98     33
    98   9.48294   0.00000   7.95733   0.19174   55.00001   0.00000   0.00100    97   98   99     34
    99   9.59292   0.00000   8.11440   0.19174   55.00001   0.00000   0.00100    98   99  100     34
   100   9.70289   0.00000   8.27147   0.19174   55.00001   0.00000   0.00100    99  100  101     34
   101   9.79840   0.00000   8.43689   0.19174   64.99996   0.00000   0.00100   100  101  102     35
   102   9.87943   0.00000   8.61067   0.19174   64.99996   0.00000   0.00100   101  102  103     35
   103   9.96047   0.00000   8.78444   0.19174   64.99996   0.00000   0.00100   102  103  104     35
   104  10.02580   0.00000   8.96394   0.19174   74.99999   0.00000   0.00100   103  104  105     36
   105  10.07543   0.00000   9.14915   0.19174   74.99999   0.00000   0.00100   104  105  106     36
   106  10.12505   0.00000   9.33436   0.19174   74.99999   0.00000   0.00100   105  106  107     36
   107  10.15822   0.00000   9.52247   0.19174   85.00004   0.00000   0.00100   106  107  108     37
   108  10.17493   0.00000   9.71348   0.19174   85.00004   0.00000   0.00100   107  108  109     37
   109  10.19164   0.00000   9.90449   0.19174   85.00004   0.00000   0.00100   108  109    0     37






 ***** DATA CARD NO.  1   GN   0     0     0     0  4.00000E+00  3.00000E-03  0.00000E+00  0.00000E+00  0.00000E+00  0.00000E+00
 ***** DATA CARD NO.  2   EK   0     0     0     0  0.00000E+00  0.00000E+00  0.00000E+00  0.00000E+00  0.00000E+00  0.00000E+00
 ***** DATA CARD NO.  3   EX   0    19     1     0  1.00000E+00  0.00000E+00  0.00000E+00  0.00000E+00  0.00000E+00  0.00000E+00
 ***** DATA CARD NO.  4   FR   0     1     0     0  7.20000E+00  0.00000E+00  0.00000E+00  0.00000E+00  0.00000E+00  0.00000E+00
 ***** DATA CARD NO.  5   RP   0    19    73  1003 -9.00000E+01  0.00000E+00  5.00000E+00  5.00000E+00  0.00000E+00  0.00000E+00




                                 - - - - - - FREQUENCY - - - - - -

                                    FREQUENCY= 7.2000E+00 MHZ
                                    WAVELENGTH= 4.1639E+01 METERS




                    APPROXIMATE INTEGRATION EMPLOYED FOR SEGMENTS MORE THAN   1.000 WAVELENGTHS APART

                    THE EXTENDED THIN WIRE KERNEL WILL BE USED



                               - - - STRUCTURE IMPEDANCE LOADING - - -

                                   THIS STRUCTURE IS NOT LOADED



                                  - - - ANTENNA ENVIRONMENT - - -

                                        FINITE GROUND.  REFLECTION COEFFICIENT APPROXIMATION
                                        RELATIVE DIELECTRIC CONST.=  4.000
                                        CONDUCTIVITY= 3.000E-03 MHOS/METER
                                        COMPLEX DIELECTRIC CONSTANT= 4.00000E+00-7.49000E+00



                                - - - MATRIX TIMING - - -

                        FILL=    0.047 SEC.,  FACTOR=    0.000 SEC.



                                          - - - ANTENNA INPUT PARAMETERS - - -

   TAG   SEG.    VOLTAGE (VOLTS)         CURRENT (AMPS)         IMPEDANCE (OHMS)        ADMITTANCE (MHOS)      POWER
   NO.   NO.    REAL        IMAG.       REAL        IMAG.       REAL        IMAG.       REAL        IMAG.     (WATTS)
    19    55 1.00000E+00 0.00000E+00 1.93330E-02 1.20626E-02 3.72309E+01-2.32299E+01 1.93330E-02 1.20626E-02 9.66651E-03



                             - - - CURRENTS AND LOCATION - - -

                                 DISTANCES IN WAVELENGTHS


  SEG.  TAG    COORD. OF SEG. CENTER     SEG.            - - - CURRENT (AMPS) - - -
  NO.   NO.     X        Y        Z      LENGTH     REAL        IMAG.       MAG.        PHASE
     1    1  -0.0791   0.0000   0.2379  0.00460   3.8743E-04  2.2186E-04  4.4646E-04   29.798
     2    1  -0.0787   0.0000   0.2333  0.00460   1.0623E-03  6.0832E-04  1.2241E-03   29.798
     3    1  -0.0782   0.0000   0.2287  0.00460   1.6923E-03  9.6912E-04  1.9501E-03   29.799
     4    2  -0.0775   0.0000   0.2242  0.00460   2.3031E-03  1.3190E-03  2.6541E-03   29.799
     5    2  -0.0763   0.0000   0.2197  0.00460   2.9008E-03  1.6615E-03  3.3429E-03   29.803
     6    2  -0.0751   0.0000   0.2153  0.00460   3.4879E-03  1.9982E-03  4.0197E-03   29.808
     7    3  -0.0735   0.0000   0.2110  0.00460   4.0661E-03  2.3300E-03  4.6863E-03   29.814
     8    3  -0.0716   0.0000   0.2068  0.00460   4.6358E-03  2.6573E-03  5.3434E-03   29.822
     9    3  -0.0696   0.0000   0.2026  0.00460   5.1976E-03  2.9805E-03  5.9916E-03   29.832
    10    4  -0.0673   0.0000   0.1986  0.00460   5.7518E-03  3.2998E-03  6.6311E-03   29.843
    11    4  -0.0647   0.0000   0.1949  0.00460   6.2980E-03  3.6151E-03  7.2618E-03   29.856
    12    4  -0.0620   0.0000   0.1911  0.00460   6.8364E-03  3.9265E-03  7.8838E-03   29.871
    13    5  -0.0591   0.0000   0.1876  0.00460   7.3670E-03  4.2340E-03  8.4970E-03   29.887
    14    5  -0.0558   0.0000   0.1843  0.00460   7.8891E-03  4.5373E-03  9.1009E-03   29.905
    15    5  -0.0526   0.0000   0.1811  0.00460   8.4029E-03  4.8366E-03  9.6954E-03   29.924
    16    6  -0.0491   0.0000   0.1781  0.00460   8.9080E-03  5.1317E-03  1.0280E-02   29.945
    17    6  -0.0453   0.0000   0.1755  0.00460   9.4040E-03  5.4224E-03  1.0855E-02   29.968
    18    6  -0.0415   0.0000   0.1728  0.00460   9.8907E-03  5.7087E-03  1.1420E-02   29.992
    19    7  -0.0375   0.0000   0.1706  0.00460   1.0368E-02  5.9903E-03  1.1974E-02   30.018
    20    7  -0.0334   0.0000   0.1686  0.00460   1.0835E-02  6.2672E-03  1.2517E-02   30.046
    21    7  -0.0292   0.0000   0.1667  0.00460   1.1292E-02  6.5391E-03  1.3049E-02   30.075
    22    8  -0.0249   0.0000   0.1651  0.00460   1.1739E-02  6.8061E-03  1.3569E-02   30.105
    23    8  -0.0204   0.0000   0.1639  0.00460   1.2174E-02  7.0677E-03  1.4077E-02   30.137
    24    8  -0.0160   0.0000   0.1627  0.00460   1.2599E-02  7.3241E-03  1.4573E-02   30.171
    25    9  -0.0115   0.0000   0.1619  0.00460   1.3012E-02  7.5749E-03  1.5056E-02   30.206
    26    9  -0.0069   0.0000   0.1615  0.00460   1.3413E-02  7.8201E-03  1.5527E-02   30.243
    27    9  -0.0023   0.0000   0.1611  0.00460   1.3803E-02  8.0595E-03  1.5984E-02   30.281
    28   10   0.0023   0.0000   0.1611  0.00460   1.4180E-02  8.2930E-03  1.6427E-02   30.320
    29   10   0.0069   0.0000   0.1615  0.00460   1.4545E-02  8.5204E-03  1.6857E-02   30.361
    30   10   0.0115   0.0000   0.1619  0.00460   1.4897E-02  8.7416E-03  1.7273E-02   30.404
    31   11   0.0160   0.0000   0.1627  0.00460   1.5237E-02  8.9565E-03  1.7674E-02   30.448
    32   11   0.0204   0.0000   0.1639  0.00460   1.5563E-02  9.1649E-03  1.8061E-02   30.493
    33   11   0.0249   0.0000   0.1651  0.00460   1.5876E-02  9.3668E-03  1.8433E-02   30.540
    34   12   0.0292   0.0000   0.1667  0.00460   1.6176E-02  9.5621E-03  1.8791E-02   30.589
    35   12   0.0334   0.0000   0.1686  0.00460   1.6462E-02  9.7507E-03  1.9133E-02   30.638
    36   12   0.0375   0.0000   0.1706  0.00460   1.6735E-02  9.9324E-03  1.9461E-02   30.690
    37   13   0.0415   0.0000   0.1728  0.00460   1.6994E-02  1.0107E-02  1.9773E-02   30.742
    38   13   0.0453   0.0000   0.1755  0.00460   1.7240E-02  1.0275E-02  2.0070E-02   30.796
    39   13   0.0491   0.0000   0.1781  0.00460   1.7471E-02  1.0436E-02  2.0351E-02   30.852
    40   14   0.0526   0.0000   0.1811  0.00460   1.7689E-02  1.0590E-02  2.0617E-02   30.908
    41   14   0.0558   0.0000   0.1843  0.00460   1.7894E-02  1.0738E-02  2.0868E-02   30.967
    42   14   0.0591   0.0000   0.1876  0.00460   1.8085E-02  1.0878E-02  2.1104E-02   31.026
    43   15   0.0620   0.0000   0.1911  0.00460   1.8262E-02  1.1011E-02  2.1325E-02   31.088
    44   15   0.0647   0.0000   0.1949  0.00460   1.8426E-02  1.1137E-02  2.1530E-02   31.151
    45   15   0.0673   0.0000   0.1986  0.00460   1.8576E-02  1.1257E-02  2.1720E-02   31.215
    46   16   0.0696   0.0000   0.2026  0.00460   1.8713E-02  1.1369E-02  2.1896E-02   31.281
    47   16   0.0716   0.0000   0.2068  0.00460   1.8837E-02  1.1475E-02  2.2057E-02   31.349
    48   16   0.0735   0.0000   0.2110  0.00460   1.8947E-02  1.1574E-02  2.2203E-02   31.419
    49   17   0.0751   0.0000   0.2153  0.00460   1.9045E-02  1.1666E-02  2.2334E-02   31.491
    50   17   0.0763   0.0000   0.2197  0.00460   1.9128E-02  1.1752E-02  2.2450E-02   31.565
    51   17   0.0775   0.0000   0.2242  0.00460   1.9198E-02  1.1830E-02  2.2550E-02   31.641
    52   18   0.0782   0.0000   0.2287  0.00460   1.9254E-02  1.1901E-02  2.2635E-02   31.720
    53   18   0.0787   0.0000   0.2333  0.00460   1.9296E-02  1.1964E-02  2.2704E-02   31.801
    54   18   0.0791   0.0000   0.2379  0.00460   1.9322E-02  1.2019E-02  2.2755E-02   31.884
    55   19   0.0829   0.0000   0.2402  0.00720   1.9333E-02  1.2063E-02  2.2788E-02   31.962
    56   20   0.0867   0.0000   0.2379  0.00460   1.9322E-02  1.2019E-02  2.2755E-02   31.884
    57   20   0.0871   0.0000   0.2333  0.00460   1.9296E-02  1.1964E-02  2.2704E-02   31.801
    58   20   0.0875   0.0000   0.2287  0.00460   1.9254E-02  1.1901E-02  2.2635E-02   31.720
    59   21   0.0883   0.0000   0.2242  0.00460   1.9198E-02  1.1830E-02  2.2550E-02   31.641
    60   21   0.0894   0.0000   0.2197  0.00460   1.9128E-02  1.1752E-02  2.2450E-02   31.565
    61   21   0.0906   0.0000   0.2153  0.00460   1.9045E-02  1.1666E-02  2.2334E-02   31.491
    62   22   0.0922   0.0000   0.2110  0.00460   1.8947E-02  1.1574E-02  2.2203E-02   31.419
    63   22   0.0942   0.0000   0.2068  0.00460   1.8837E-02  1.1475E-02  2.2057E-02   31.349
    64   22   0.0961   0.0000   0.2026  0.00460   1.8713E-02  1.1369E-02  2.1896E-02   31.281
    65   23   0.0984   0.0000   0.1986  0.00460   1.8576E-02  1.1257E-02  2.1720E-02   31.215
    66   23   0.1010   0.0000   0.1949  0.00460   1.8426E-02  1.1137E-02  2.1530E-02   31.151
    67   23   0.1037   0.0000   0.1911  0.00460   1.8262E-02  1.1011E-02  2.1325E-02   31.088
    68   24   0.1066   0.0000   0.1876  0.00460   1.8085E-02  1.0878E-02  2.1104E-02   31.026
    69   24   0.1099   0.0000   0.1843  0.00460   1.7894E-02  1.0738E-02  2.0868E-02   30.967
    70   24   0.1131   0.0000   0.1811  0.00460   1.7689E-02  1.0590E-02  2.0617E-02   30.908
    71   25   0.1167   0.0000   0.1781  0.00460   1.7471E-02  1.0436E-02  2.0351E-02   30.852
    72   25   0.1204   0.0000   0.1755  0.00460   1.7240E-02  1.0275E-02  2.0070E-02   30.796
    73   25   0.1242   0.0000   0.1728  0.00460   1.6994E-02  1.0107E-02  1.9773E-02   30.742
    74   26   0.1282   0.0000   0.1706  0.00460   1.6735E-02  9.9324E-03  1.9461E-02   30.690
    75   26   0.1323   0.0000   0.1686  0.00460   1.6462E-02  9.7507E-03  1.9133E-02   30.638
    76   26   0.1365   0.0000   0.1667  0.00460   1.6176E-02  9.5621E-03  1.8791E-02   30.589
    77   27   0.1408   0.0000   0.1651  0.00460   1.5876E-02  9.3668E-03  1.8433E-02   30.540
    78   27   0.1453   0.0000   0.1639  0.00460   1.5563E-02  9.1649E-03  1.8061E-02   30.493
    79   27   0.1497   0.0000   0.1627  0.00460   1.5237E-02  8.9565E-03  1.7674E-02   30.448
    80   28   0.1542   0.0000   0.1619  0.00460   1.4897E-02  8.7416E-03  1.7273E-02   30.404
    81   28   0.1588   0.0000   0.1615  0.00460   1.4545E-02  8.5204E-03  1.6857E-02   30.361
    82   28   0.1634   0.0000   0.1611  0.00460   1.4180E-02  8.2930E-03  1.6427E-02   30.320
    83   29   0.1680   0.0000   0.1611  0.00460   1.3803E-02  8.0595E-03  1.5984E-02   30.281
    84   29   0.1726   0.0000   0.1615  0.00460   1.3413E-02  7.8201E-03  1.5527E-02   30.243
    85   29   0.1772   0.0000   0.1619  0.00460   1.3012E-02  7.5749E-03  1.5056E-02   30.206
    86   30   0.1817   0.0000   0.1627  0.00460   1.2599E-02  7.3241E-03  1.4573E-02   30.171
    87   30   0.1861   0.0000   0.1639  0.00460   1.2174E-02  7.0677E-03  1.4077E-02   30.137
    88   30   0.1906   0.0000   0.1651  0.00460   1.1739E-02  6.8061E-03  1.3569E-02   30.105
    89   31   0.1949   0.0000   0.1667  0.00460   1.1292E-02  6.5391E-03  1.3049E-02   30.075
    90   31   0.1991   0.0000   0.1686  0.00460   1.0835E-02  6.2672E-03  1.2517E-02   30.046
    91   31   0.2033   0.0000   0.1706  0.00460   1.0368E-02  5.9903E-03  1.1974E-02   30.018
    92   32   0.2072   0.0000   0.1728  0.00460   9.8907E-03  5.7087E-03  1.1420E-02   29.992
    93   32   0.2110   0.0000   0.1755  0.00460   9.4040E-03  5.4224E-03  1.0855E-02   29.968
    94   32   0.2148   0.0000   0.1781  0.00460   8.9080E-03  5.1317E-03  1.0280E-02   29.945
    95   33   0.2183   0.0000   0.1811  0.00460   8.4029E-03  4.8366E-03  9.6954E-03   29.924
    96   33   0.2215   0.0000   0.1843  0.00460   7.8891E-03  4.5373E-03  9.1009E-03   29.905
    97   33   0.2248   0.0000   0.1876  0.00460   7.3670E-03  4.2340E-03  8.4970E-03   29.887
    98   34   0.2277   0.0000   0.1911  0.00460   6.8364E-03  3.9265E-03  7.8838E-03   29.871
    99   34   0.2304   0.0000   0.1949  0.00460   6.2980E-03  3.6151E-03  7.2618E-03   29.856
   100   34   0.2330   0.0000   0.1986  0.00460   5.7518E-03  3.2998E-03  6.6311E-03   29.843
   101   35   0.2353   0.0000   0.2026  0.00460   5.1976E-03  2.9805E-03  5.9916E-03   29.832
   102   35   0.2373   0.0000   0.2068  0.00460   4.6358E-03  2.6573E-03  5.3434E-03   29.822
   103   35   0.2392   0.0000   0.2110  0.00460   4.0661E-03  2.3300E-03  4.6863E-03   29.814
   104   36   0.2408   0.0000   0.2153  0.00460   3.4879E-03  1.9982E-03  4.0197E-03   29.808
   105   36   0.2420   0.0000   0.2197  0.00460   2.9008E-03  1.6615E-03  3.3429E-03   29.803
   106   36   0.2432   0.0000   0.2242  0.00460   2.3031E-03  1.3190E-03  2.6541E-03   29.799
   107   37   0.2440   0.0000   0.2287  0.00460   1.6923E-03  9.6912E-04  1.9501E-03   29.799
   108   37   0.2444   0.0000   0.2333  0.00460   1.0623E-03  6.0832E-04  1.2241E-03   29.798
   109   37   0.2448   0.0000   0.2379  0.00460   3.8743E-04  2.2186E-04  4.4646E-04   29.798



                                        - - - POWER BUDGET - - -

                                           INPUT POWER   = 9.6665E-03 WATTS
                                           RADIATED POWER= 9.6665E-03 WATTS
                                           STRUCTURE LOSS= 0.0000E+00 WATTS
                                           NETWORK LOSS  = 0.0000E+00 WATTS
                                           EFFICIENCY    = 100.00 PERCENT



                                                - - - RADIATION PATTERNS - - -

  - - ANGLES - -           - POWER GAINS -       - - - POLARIZATION - - -    - - - E(THETA) - - -    - - - E(PHI) - - -
  THETA     PHI        VERT.   HOR.    TOTAL      AXIAL     TILT   SENSE     MAGNITUDE    PHASE      MAGNITUDE    PHASE 
 DEGREES  DEGREES       DB      DB      DB        RATIO     DEG.              VOLTS/M    DEGREES      VOLTS/M    DEGREES
  -90.00     0.00    -999.99 -999.99 -999.99    0.00000     0.00            8.53462E-12    78.23    0.00000E+00     0.00
  -85.00     0.00     -16.17 -999.99  -16.17    0.00000     0.00  LINEAR    1.18266E-01   -94.51    0.00000E+00     0.00
  -80.00     0.00     -11.62 -999.99  -11.62    0.00000     0.00  LINEAR    1.99694E-01   -85.98    0.00000E+00     0.00
  -75.00     0.00      -9.19 -999.99   -9.19    0.00000     0.00  LINEAR    2.64351E-01   -75.91    0.00000E+00     0.00
  -70.00     0.00      -7.35 -999.99   -7.35    0.00000     0.00  LINEAR    3.26499E-01   -64.83    0.00000E+00     0.00
  -65.00     0.00      -5.68 -999.99   -5.68    0.00000     0.00  LINEAR    3.95981E-01   -53.69    0.00000E+00     0.00
  -60.00     0.00      -4.05 -999.99   -4.05    0.00000     0.00  LINEAR    4.77745E-01   -43.37    0.00000E+00     0.00
  -55.00     0.00      -2.48 -999.99   -2.48    0.00000     0.00  LINEAR    5.72184E-01   -34.32    0.00000E+00     0.00
  -50.00     0.00      -1.02 -999.99   -1.02    0.00000     0.00  LINEAR    6.76579E-01   -26.57    0.00000E+00     0.00
  -45.00     0.00       0.28 -999.99    0.28    0.00000     0.00  LINEAR    7.86671E-01   -19.96    0.00000E+00     0.00
  -40.00     0.00       1.43 -999.99    1.43    0.00000     0.00  LINEAR    8.97773E-01   -14.24    0.00000E+00     0.00
  -35.00     0.00       2.42 -999.99    2.42    0.00000     0.00  LINEAR    1.00541E+00    -9.22    0.00000E+00     0.00
  -30.00     0.00       3.24 -999.99    3.24    0.00000     0.00  LINEAR    1.10563E+00    -4.74    0.00000E+00     0.00
  -25.00     0.00       3.92 -999.99    3.92    0.00000     0.00  LINEAR    1.19516E+00    -0.66    0.00000E+00     0.00
  -20.00     0.00       4.45 -999.99    4.45    0.00000     0.00  LINEAR    1.27140E+00     3.08    0.00000E+00     0.00
  -15.00     0.00       4.86 -999.99    4.86    0.00000     0.00  LINEAR    1.33244E+00     6.54    0.00000E+00     0.00
  -10.00     0.00       5.15 -999.99    5.15    0.00000     0.00  LINEAR    1.37689E+00     9.75    0.00000E+00     0.00
   -5.00     0.00       5.32 -999.99    5.32    0.00000     0.00  LINEAR    1.40389E+00    12.72    0.00000E+00     0.00
    0.00     0.00       5.37 -999.99    5.37    0.00000     0.00  LINEAR    1.41294E+00    15.45    0.00000E+00     0.00
  -90.00     5.00    -999.99 -999.99 -999.99    0.00000     0.00            8.51051E-12    78.33    1.00883E-12   -11.41
  -85.00     5.00     -16.20  -33.14  -16.11    0.14086    -1.13  RIGHT     1.17931E-01   -94.41    1.67746E-02   167.77
  -80.00     5.00     -11.65  -27.40  -11.53    0.15569    -2.77  RIGHT     1.99121E-01   -85.88    3.24625E-02   167.29
  -75.00     5.00      -9.21  -24.21   -9.08    0.15745    -4.74  RIGHT     2.63576E-01   -75.82    4.68976E-02   167.16
  -70.00     5.00      -7.38  -22.07   -7.23    0.14350    -6.59  RIGHT     3.25520E-01   -64.74    5.99636E-02   167.37
  -65.00     5.00      -5.70  -20.53   -5.56    0.11801    -7.84  RIGHT     3.94766E-01   -53.60    7.15954E-02   167.92
  -60.00     5.00      -4.07  -19.38   -3.95    0.08929    -8.35  RIGHT     4.76246E-01   -43.28    8.17771E-02   168.80
  -55.00     5.00      -2.51  -18.49   -2.40    0.06377    -8.27  RIGHT     5.70350E-01   -34.23    9.05378E-02   169.99
  -50.00     5.00      -1.05  -17.81   -0.96    0.04394    -7.88  RIGHT     6.74361E-01   -26.49    9.79443E-02   171.47
  -45.00     5.00       0.26  -17.28    0.33    0.02959    -7.37  RIGHT     7.84032E-01   -19.88    1.04094E-01   173.22
  -40.00     5.00       1.40  -16.87    1.47    0.01958    -6.86  RIGHT     8.94693E-01   -14.17    1.09105E-01   175.20
  -35.00     5.00       2.39  -16.56    2.44    0.01273    -6.40  RIGHT     1.00188E+00    -9.16    1.13110E-01   177.40
  -30.00     5.00       3.21  -16.32    3.26    0.00808    -6.01  RIGHT     1.10168E+00    -4.68    1.16243E-01   179.76
  -25.00     5.00       3.89  -16.15    3.93    0.00494    -5.68  RIGHT     1.19081E+00    -0.61    1.18636E-01  -177.74
  -20.00     5.00       4.42  -16.02    4.46    0.00285    -5.43  RIGHT     1.26670E+00     3.12    1.20412E-01  -175.15
  -15.00     5.00       4.83  -15.93    4.87    0.00147    -5.24  RIGHT     1.32745E+00     6.57    1.21676E-01  -172.50
  -10.00     5.00       5.11  -15.87    5.15    0.00062    -5.10  RIGHT     1.37169E+00     9.77    1.22514E-01  -169.83
   -5.00     5.00       5.28  -15.83    5.32    0.00015    -5.03  RIGHT     1.39855E+00    12.73    1.22991E-01  -167.17
    0.00     5.00       5.34  -15.82    5.37    0.00000    -5.00  LINEAR    1.40756E+00    15.45    1.23146E-01  -164.55
  -90.00    10.00    -999.99 -999.99 -999.99    0.00000     0.00            8.43811E-12    78.63    2.01557E-12   -11.08
  -85.00    10.00     -16.27  -27.13  -15.93    0.28352    -2.42  RIGHT     1.16921E-01   -94.11    3.35128E-02   168.11
  -80.00    10.00     -11.72  -21.39  -11.28    0.31142    -6.01  RIGHT     1.97393E-01   -85.58    6.48507E-02   167.63
  -75.00    10.00      -9.29  -18.20   -8.76    0.31040   -10.24  RIGHT     2.61243E-01   -75.52    9.36781E-02   167.49
  -70.00    10.00      -7.46  -16.06   -6.90    0.27742   -13.93  RIGHT     3.22573E-01   -64.44    1.19761E-01   167.69
  -65.00    10.00      -5.79  -14.53   -5.24    0.22462   -16.14  RIGHT     3.91110E-01   -53.31    1.42968E-01   168.23
  -60.00    10.00      -4.16  -13.37   -3.67    0.16889   -16.84  RIGHT     4.71740E-01   -43.00    1.63267E-01   169.09
  -55.00    10.00      -2.59  -12.49   -2.17    0.12083   -16.51  RIGHT     5.64837E-01   -33.96    1.80718E-01   170.26
  -50.00    10.00      -1.14  -11.81   -0.78    0.08373   -15.67  RIGHT     6.67698E-01   -26.23    1.95457E-01   171.73
  -45.00    10.00       0.17  -11.28    0.47    0.05677   -14.66  RIGHT     7.76111E-01   -19.64    2.07679E-01   173.46
  -40.00    10.00       1.31  -10.88    1.57    0.03782   -13.65  RIGHT     8.85452E-01   -13.96    2.17626E-01   175.42
  -35.00    10.00       2.29  -10.57    2.51    0.02472   -12.75  RIGHT     9.91315E-01    -8.97    2.25561E-01   177.59
  -30.00    10.00       3.12  -10.33    3.31    0.01576   -11.97  RIGHT     1.08982E+00    -4.51    2.31759E-01   179.93
  -25.00    10.00       3.79  -10.16    3.96    0.00967   -11.34  RIGHT     1.17777E+00    -0.47    2.36485E-01  -177.60
  -20.00    10.00       4.33  -10.03    4.48    0.00558   -10.84  RIGHT     1.25262E+00     3.24    2.39983E-01  -175.03
  -15.00    10.00       4.73   -9.94    4.88    0.00289   -10.47  RIGHT     1.31251E+00     6.66    2.42469E-01  -172.41
  -10.00    10.00       5.01   -9.88    5.15    0.00121   -10.20  RIGHT     1.35612E+00     9.83    2.44116E-01  -169.77
   -5.00    10.00       5.18   -9.85    5.32    0.00029   -10.05  RIGHT     1.38260E+00    12.76    2.45051E-01  -167.14
    0.00    10.00       5.24   -9.84    5.37    0.00000   -10.00  LINEAR    1.39147E+00    15.45    2.45354E-01  -164.55
  -90.00    15.00    -999.99 -999.99 -999.99    0.00000     0.00            8.31607E-12    79.12    3.01756E-12   -10.51
  -85.00    15.00     -16.40  -23.62  -15.65    0.42969    -4.11  RIGHT     1.15223E-01   -93.62    5.01730E-02   168.66
  -80.00    15.00     -11.85  -17.89  -10.89    0.46565   -10.47  RIGHT     1.94488E-01   -85.09    9.70798E-02   168.18
  -75.00    15.00      -9.42  -14.70   -8.29    0.45060   -17.54  RIGHT     2.57324E-01   -75.03    1.40210E-01   168.03
  -70.00    15.00      -7.59  -12.56   -6.39    0.38928   -22.72  RIGHT     3.17629E-01   -63.96    1.79208E-01   168.22
  -65.00    15.00      -5.92  -11.03   -4.75    0.30849   -25.12  RIGHT     3.84987E-01   -52.83    2.13875E-01   168.74
  -60.00    15.00      -4.30   -9.88   -3.24    0.23067   -25.47  RIGHT     4.64200E-01   -42.54    2.44164E-01   169.58
  -55.00    15.00      -2.74   -9.00   -1.81    0.16590   -24.63  RIGHT     5.55622E-01   -33.52    2.70166E-01   170.72
  -50.00    15.00      -1.29   -8.32   -0.50    0.11612   -23.27  RIGHT     6.56574E-01   -25.81    2.92088E-01   172.16
  -45.00    15.00       0.02   -7.80    0.68    0.07961   -21.75  RIGHT     7.62901E-01   -19.25    3.10232E-01   173.85
  -40.00    15.00       1.16   -7.39    1.73    0.05358   -20.29  RIGHT     8.70057E-01   -13.60    3.24964E-01   175.78
  -35.00    15.00       2.14   -7.09    2.63    0.03533   -18.98  RIGHT     9.73722E-01    -8.65    3.36687E-01   177.91
  -30.00    15.00       2.96   -6.85    3.39    0.02268   -17.87  RIGHT     1.07011E+00    -4.23    3.45816E-01  -179.79
  -25.00    15.00       3.63   -6.68    4.02    0.01399   -16.95  RIGHT     1.15610E+00    -0.23    3.52755E-01  -177.36
  -20.00    15.00       4.16   -6.56    4.51    0.00811   -16.23  RIGHT     1.22924E+00     3.43    3.57876E-01  -174.84
  -15.00    15.00       4.57   -6.47    4.89    0.00421   -15.68  RIGHT     1.28773E+00     6.80    3.61503E-01  -172.27
  -10.00    15.00       4.85   -6.41    5.16    0.00177   -15.30  RIGHT     1.33030E+00     9.93    3.63898E-01  -169.67
   -5.00    15.00       5.01   -6.38    5.32    0.00043   -15.07  RIGHT     1.35613E+00    12.81    3.65256E-01  -167.09
    0.00    15.00       5.07   -6.37    5.37    0.00000   -15.00  LINEAR    1.36479E+00    15.45    3.65695E-01  -164.55
  -90.00    20.00    -999.99 -999.99 -999.99    0.00000     0.00            8.14311E-12    79.81    4.01193E-12    -9.74
  -85.00    20.00     -16.58  -21.15  -15.28    0.58058    -6.79  RIGHT     1.12815E-01   -92.93    6.67030E-02   169.44
  -80.00    20.00     -12.04  -15.42  -10.40    0.61118   -17.85  RIGHT     1.90372E-01   -84.40    1.29046E-01   168.94
  -75.00    20.00      -9.61  -12.23   -7.71    0.56060   -27.97  RIGHT     2.51782E-01   -74.35    1.86336E-01   168.78
  -70.00    20.00      -7.79  -10.10   -5.78    0.46375   -33.14  RIGHT     3.10648E-01   -63.29    2.38091E-01   168.95
  -65.00    20.00      -6.12   -8.56   -4.16    0.36090   -34.56  RIGHT     3.76354E-01   -52.17    2.84041E-01   169.44
  -60.00    20.00      -4.50   -7.42   -2.71    0.27000   -33.99  RIGHT     4.53587E-01   -41.89    3.24125E-01   170.25
  -55.00    20.00      -2.94   -6.54   -1.37    0.19621   -32.46  RIGHT     5.42669E-01   -32.90    3.58468E-01   171.36
  -50.00    20.00      -1.49   -5.87   -0.14    0.13930   -30.55  RIGHT     6.40962E-01   -25.23    3.87358E-01   172.75
  -45.00    20.00      -0.20   -5.35    0.96    0.09690   -28.57  RIGHT     7.44391E-01   -18.71    4.11203E-01   174.40
  -40.00    20.00       0.94   -4.95    1.94    0.06608   -26.72  RIGHT     8.48519E-01   -13.10    4.30502E-01   176.28
  -35.00    20.00       1.92   -4.65    2.78    0.04406   -25.07  RIGHT     9.49146E-01    -8.20    4.45804E-01   178.36
  -30.00    20.00       2.73   -4.42    3.50    0.02854   -23.66  RIGHT     1.04261E+00    -3.84    4.57673E-01  -179.40
  -25.00    20.00       3.40   -4.25    4.09    0.01773   -22.49  RIGHT     1.12591E+00     0.10    4.66655E-01  -177.03
  -20.00    20.00       3.93   -4.13    4.56    0.01033   -21.57  RIGHT     1.19670E+00     3.69    4.73254E-01  -174.57
  -15.00    20.00       4.33   -4.04    4.92    0.00539   -20.87  RIGHT     1.25326E+00     7.01    4.77905E-01  -172.07
  -10.00    20.00       4.61   -3.99    5.17    0.00227   -20.38  RIGHT     1.29440E+00    10.06    4.80965E-01  -169.54
   -5.00    20.00       4.78   -3.96    5.32    0.00055   -20.10  RIGHT     1.31936E+00    12.88    4.82695E-01  -167.03
    0.00    20.00       4.83   -3.95    5.37    0.00000   -20.00  LINEAR    1.32773E+00    15.45    4.83253E-01  -164.55
  -90.00    25.00    -999.99 -999.99 -999.99    0.00000     0.00            7.91669E-12    80.70    4.99463E-12    -8.75
  -85.00    25.00     -16.83  -19.25  -14.86    0.73448   -12.48  RIGHT     1.09668E-01   -92.04    8.30358E-02   170.42
  -80.00    25.00     -12.29  -13.52   -9.85    0.72163   -31.77  RIGHT     1.85003E-01   -83.53    1.60617E-01   169.92
  -75.00    25.00      -9.86  -10.33   -7.08    0.61346   -41.62  RIGHT     2.44564E-01   -73.48    2.31858E-01   169.73
  -70.00    25.00      -8.04   -8.20   -5.11    0.49086   -44.15  RIGHT     3.01576E-01   -62.42    2.96145E-01   169.88
  -65.00    25.00      -6.38   -6.67   -3.51    0.38020   -43.72  RIGHT     3.65158E-01   -51.32    3.53136E-01   170.34
  -60.00    25.00      -4.77   -5.53   -2.12    0.28708   -42.02  RIGHT     4.39850E-01   -41.07    4.02754E-01   171.11
  -55.00    25.00      -3.21   -4.66   -0.87    0.21187   -39.79  RIGHT     5.25939E-01   -32.11    4.45165E-01   172.17
  -50.00    25.00      -1.77   -3.99    0.27    0.15305   -37.40  RIGHT     6.20837E-01   -24.48    4.80738E-01   173.51
  -45.00    25.00      -0.48   -3.48    1.29    0.10828   -35.05  RIGHT     7.20578E-01   -18.01    5.09999E-01   175.10
  -40.00    25.00       0.65   -3.09    2.18    0.07496   -32.88  RIGHT     8.20864E-01   -12.47    5.33589E-01   176.92
  -35.00    25.00       1.62   -2.79    2.96    0.05063   -30.96  RIGHT     9.17651E-01    -7.63    5.52208E-01   178.93
  -30.00    25.00       2.43   -2.57    3.63    0.03315   -29.31  RIGHT     1.00743E+00    -3.35    5.66577E-01  -178.90
  -25.00    25.00       3.10   -2.40    4.17    0.02077   -27.95  RIGHT     1.08735E+00     0.52    5.77389E-01  -176.61
  -20.00    25.00       3.62   -2.28    4.61    0.01218   -26.86  RIGHT     1.15518E+00     4.03    5.85285E-01  -174.23
  -15.00    25.00       4.02   -2.20    4.95    0.00639   -26.04  RIGHT     1.20934E+00     7.26    5.90819E-01  -171.81
  -10.00    25.00       4.30   -2.15    5.19    0.00270   -25.46  RIGHT     1.24869E+00    10.24    5.94439E-01  -169.37
   -5.00    25.00       4.46   -2.12    5.32    0.00065   -25.11  RIGHT     1.27256E+00    12.96    5.96477E-01  -166.94
    0.00    25.00       4.52   -2.11    5.37    0.00000   -25.00  LINEAR    1.28056E+00    15.45    5.97134E-01  -164.55
  -90.00    30.00    -999.99 -999.99 -999.99    0.00000     0.00            7.63516E-12    81.77    5.96054E-12    -7.56
  -85.00    30.00     -17.15  -17.71  -14.41    0.86476   -31.61  RIGHT     1.05753E-01   -90.97    9.90863E-02   171.61
  -80.00    30.00     -12.61  -11.98   -9.27    0.74079   -52.13  RIGHT     1.78333E-01   -82.46    1.91625E-01   171.09
  -75.00    30.00     -10.19   -8.80   -6.43    0.59970   -54.85  RIGHT     2.35616E-01   -72.43    2.76533E-01   170.89
  -70.00    30.00      -8.37   -6.67   -4.43    0.47701   -53.93  RIGHT     2.90359E-01   -61.38    3.53053E-01   171.00
  -65.00    30.00      -6.72   -5.15   -2.85    0.37295   -51.83  RIGHT     3.51349E-01   -50.30    4.20769E-01   171.42
  -60.00    30.00      -5.11   -4.01   -1.52    0.28610   -49.24  RIGHT     4.22945E-01   -40.07    4.79594E-01   172.14
  -55.00    30.00      -3.56   -3.15   -0.34    0.21508   -46.48  RIGHT     5.05396E-01   -31.15    5.29734E-01   173.15
  -50.00    30.00      -2.12   -2.49    0.71    0.15833   -43.73  RIGHT     5.96182E-01   -23.58    5.71647E-01   174.43
  -45.00    30.00      -0.84   -1.98    1.64    0.11404   -41.13  RIGHT     6.91474E-01   -17.18    6.05986E-01   175.95
  -40.00    30.00       0.29   -1.60    2.46    0.08024   -38.75  RIGHT     7.87144E-01   -11.70    6.33540E-01   177.69
  -35.00    30.00       1.25   -1.30    3.17    0.05496   -36.64  RIGHT     8.79334E-01    -6.95    6.55171E-01   179.62
  -30.00    30.00       2.06   -1.09    3.77    0.03640   -34.82  RIGHT     9.64719E-01    -2.75    6.71760E-01  -178.30
  -25.00    30.00       2.71   -0.93    4.27    0.02303   -33.31  RIGHT     1.04061E+00     1.02    6.84159E-01  -176.11
  -20.00    30.00       3.24   -0.81    4.68    0.01360   -32.10  RIGHT     1.10495E+00     4.44    6.93148E-01  -173.82
  -15.00    30.00       3.63   -0.74    4.98    0.00717   -31.17  RIGHT     1.15625E+00     7.57    6.99400E-01  -171.50
  -10.00    30.00       3.91   -0.69    5.20    0.00304   -30.52  RIGHT     1.19350E+00    10.44    7.03464E-01  -169.16
   -5.00    30.00       4.07   -0.66    5.33    0.00074   -30.13  RIGHT     1.21608E+00    13.07    7.05738E-01  -166.83
    0.00    30.00       4.12   -0.65    5.37    0.00000   -30.00  LINEAR    1.22364E+00    15.45    7.06469E-01  -164.55
  -90.00    35.00    -999.99 -999.99 -999.99    0.00000     0.00            7.29581E-12    83.03    6.90312E-12    -6.17
  -85.00    35.00     -17.54  -16.44  -13.94    0.83495   -67.58  RIGHT     1.01040E-01   -89.72    1.14749E-01   173.00
  -80.00    35.00     -13.01  -10.71   -8.70    0.67432   -66.79  RIGHT     1.70316E-01   -81.21    2.21867E-01   172.46
  -75.00    35.00     -10.59   -7.53   -5.78    0.54619   -64.42  RIGHT     2.24889E-01   -71.19    3.20062E-01   172.23
  -70.00    35.00      -8.78   -5.41   -3.77    0.43950   -61.59  RIGHT     2.76945E-01   -60.16    4.08431E-01   172.31
  -65.00    35.00      -7.13   -3.89   -2.21    0.34914   -58.57  RIGHT     3.34879E-01   -49.10    4.86483E-01   172.68
  -60.00    35.00      -5.53   -2.76   -0.92    0.27273   -55.49  RIGHT     4.02835E-01   -38.91    5.54115E-01   173.35
  -55.00    35.00      -3.99   -1.90    0.19    0.20896   -52.45  RIGHT     4.81020E-01   -30.04    6.11584E-01   174.29
  -50.00    35.00      -2.56   -1.25    1.16    0.15674   -49.53  RIGHT     5.67003E-01   -22.53    6.59443E-01   175.49
  -45.00    35.00      -1.28   -0.75    2.01    0.11493   -46.79  RIGHT     6.57117E-01   -16.20    6.98477E-01   176.93
  -40.00    35.00      -0.16   -0.37    2.75    0.08219   -44.30  RIGHT     7.47441E-01   -10.82    7.29631E-01   178.58
  -35.00    35.00       0.80   -0.08    3.39    0.05710   -42.08  RIGHT     8.34329E-01    -6.16    7.53938E-01  -179.58
  -30.00    35.00       1.59    0.13    3.93    0.03828   -40.17  RIGHT     9.14667E-01    -2.05    7.72446E-01  -177.61
  -25.00    35.00       2.25    0.28    4.38    0.02446   -38.56  RIGHT     9.85956E-01     1.61    7.86169E-01  -175.52
  -20.00    35.00       2.76    0.39    4.75    0.01457   -37.26  RIGHT     1.04630E+00     4.92    7.96031E-01  -173.35
  -15.00    35.00       3.15    0.46    5.02    0.00772   -36.26  RIGHT     1.09436E+00     7.94    8.02830E-01  -171.14
  -10.00    35.00       3.42    0.51    5.22    0.00329   -35.56  RIGHT     1.12923E+00    10.69    8.07212E-01  -168.92
   -5.00    35.00       3.59    0.53    5.33    0.00080   -35.14  RIGHT     1.15034E+00    13.19    8.09648E-01  -166.71
    0.00    35.00       3.64    0.54    5.37    0.00000   -35.00  LINEAR    1.15741E+00    15.45    8.10428E-01  -164.55
  -90.00    40.00    -999.99 -999.99 -999.99    0.00000     0.00            6.89733E-12    84.47    7.81501E-12    -4.59
  -85.00    40.00     -18.03  -15.36  -13.48    0.71693   -79.14  RIGHT     9.55051E-02   -88.28    1.29896E-01   174.57
  -80.00    40.00     -13.50   -9.63   -8.14    0.58612   -74.38  RIGHT     1.60917E-01   -79.79    2.51097E-01   174.01
  -75.00    40.00     -11.09   -6.45   -5.17    0.48101   -70.73  RIGHT     2.12342E-01   -69.78    3.62093E-01   173.75
  -70.00    40.00      -9.29   -4.34   -3.14    0.39279   -67.33  RIGHT     2.61300E-01   -58.77    4.61833E-01   173.79
  -65.00    40.00      -7.65   -2.83   -1.59    0.31711   -64.04  RIGHT     3.15721E-01   -47.74    5.49745E-01   174.11
  -60.00    40.00      -6.05   -1.70   -0.34    0.25200   -60.83  RIGHT     3.79506E-01   -37.59    6.25719E-01   174.71
  -55.00    40.00      -4.51   -0.85    0.70    0.19651   -57.73  RIGHT     4.52818E-01   -28.78    6.90060E-01   175.58
  -50.00    40.00      -3.09   -0.21    1.60    0.15002   -54.79  RIGHT     5.33334E-01   -21.34    7.43424E-01   176.70
  -45.00    40.00      -1.82    0.29    2.37    0.11186   -52.05  RIGHT     6.17585E-01   -15.10    7.86736E-01   178.05
  -40.00    40.00      -0.71    0.66    3.04    0.08125   -49.54  RIGHT     7.01883E-01    -9.81    8.21104E-01   179.60
  -35.00    40.00       0.24    0.93    3.61    0.05725   -47.29  RIGHT     7.82824E-01    -5.25    8.47733E-01  -178.68
  -30.00    40.00       1.03    1.14    4.10    0.03885   -45.34  RIGHT     8.57527E-01    -1.27    8.67849E-01  -176.82
  -25.00    40.00       1.68    1.28    4.50    0.02507   -43.70  RIGHT     9.23700E-01     2.28    8.82629E-01  -174.85
  -20.00    40.00       2.19    1.39    4.82    0.01505   -42.35  RIGHT     9.79629E-01     5.46    8.93142E-01  -172.81
  -15.00    40.00       2.58    1.46    5.06    0.00803   -41.32  RIGHT     1.02411E+00     8.34    9.00315E-01  -170.73
  -10.00    40.00       2.84    1.50    5.23    0.00343   -40.58  RIGHT     1.05634E+00    10.96    9.04891E-01  -168.64
   -5.00    40.00       3.00    1.52    5.34    0.00084   -40.15  RIGHT     1.07585E+00    13.33    9.07415E-01  -166.57
    0.00    40.00       3.06    1.53    5.37    0.00000   -40.00  LINEAR    1.08237E+00    15.45    9.08219E-01  -164.55
  -90.00    45.00    -999.99 -999.99 -999.99    0.00000     0.00            6.43803E-12    86.08    8.68714E-12    -2.84
  -85.00    45.00     -18.63  -14.44  -13.04    0.60722   -83.15  RIGHT     8.91315E-02   -86.68    1.44381E-01   176.31
  -80.00    45.00     -14.10   -8.72   -7.61    0.50193   -78.63  RIGHT     1.50112E-01   -78.20    2.79032E-01   175.74
  -75.00    45.00     -11.70   -5.54   -4.60    0.41665   -75.02  RIGHT     1.97955E-01   -68.21    4.02221E-01   175.44
  -70.00    45.00      -9.90   -3.43   -2.55    0.34453   -71.68  RIGHT     2.43410E-01   -57.22    5.12748E-01   175.43
  -65.00    45.00      -8.27   -1.93   -1.02    0.28202   -68.48  RIGHT     2.93877E-01   -46.22    6.09960E-01   175.69
  -60.00    45.00      -6.68   -0.81    0.19    0.22746   -65.38  RIGHT     3.52976E-01   -36.12    6.93739E-01   176.23
  -55.00    45.00      -5.15    0.04    1.19    0.18013   -62.40  RIGHT     4.20833E-01   -27.38    7.64444E-01   177.02
  -50.00    45.00      -3.73    0.68    2.02    0.13967   -59.56  RIGHT     4.95256E-01   -20.02    8.22838E-01   178.04
  -45.00    45.00      -2.47    1.16    2.72    0.10574   -56.91  RIGHT     5.73003E-01   -13.87    8.69988E-01   179.29
  -40.00    45.00      -1.36    1.52    3.33    0.07792   -54.47  RIGHT     6.50650E-01    -8.69    9.07170E-01  -179.28
  -35.00    45.00      -0.42    1.79    3.83    0.05563   -52.28  RIGHT     7.25064E-01    -4.25    9.35768E-01  -177.67
  -30.00    45.00       0.36    1.99    4.26    0.03819   -50.35  RIGHT     7.93610E-01    -0.39    9.57184E-01  -175.94
  -25.00    45.00       1.00    2.13    4.61    0.02490   -48.72  RIGHT     8.54220E-01     3.02    9.72759E-01  -174.11
  -20.00    45.00       1.51    2.23    4.89    0.01507   -47.38  RIGHT     9.05362E-01     6.06    9.83713E-01  -172.21
  -15.00    45.00       1.89    2.29    5.10    0.00809   -46.33  RIGHT     9.45976E-01     8.80    9.91096E-01  -170.27
  -10.00    45.00       2.15    2.33    5.25    0.00347   -45.59  RIGHT     9.75375E-01    11.27    9.95750E-01  -168.34
   -5.00    45.00       2.31    2.35    5.34    0.00085   -45.15  RIGHT     9.93152E-01    13.48    9.98293E-01  -166.42
    0.00    45.00       2.36    2.36    5.37    0.00000   -45.00  LINEAR    9.99098E-01    15.45    9.99098E-01  -164.55
  -90.00    50.00    -999.99 -999.99 -999.99    0.00000     0.00            5.91783E-12    87.85    9.50968E-12    -0.93
  -85.00    50.00     -19.36  -13.66  -12.62    0.51193   -85.18  RIGHT     8.19168E-02   -84.91    1.58039E-01   178.21
  -80.00    50.00     -14.84   -7.94   -7.13    0.42620   -81.35  RIGHT     1.37901E-01   -76.44    3.05355E-01   177.62
  -75.00    50.00     -12.44   -4.76   -4.08    0.35676   -78.12  RIGHT     1.81734E-01   -66.47    4.39998E-01   177.29
  -70.00    50.00     -10.65   -2.66   -2.02    0.29789   -75.09  RIGHT     2.23296E-01   -55.52    5.60614E-01   177.23
  -65.00    50.00      -9.02   -1.16   -0.50    0.24655   -72.16  RIGHT     2.69383E-01   -44.56    6.66475E-01   177.43
  -60.00    50.00      -7.44   -0.04    0.68    0.20128   -69.30  RIGHT     3.23309E-01   -34.51    7.57455E-01   177.88
  -55.00    50.00      -5.92    0.79    1.63    0.16148   -66.54  RIGHT     3.85161E-01   -25.84    8.33970E-01   178.58
  -50.00    50.00      -4.51    1.42    2.41    0.12690   -63.91  RIGHT     4.52906E-01   -18.57    8.96889E-01   179.51
  -45.00    50.00      -3.25    1.90    3.06    0.09737   -61.42  RIGHT     5.23559E-01   -12.53    9.47427E-01  -179.36
  -40.00    50.00      -2.16    2.26    3.60    0.07268   -59.12  RIGHT     5.93991E-01    -7.46    9.87026E-01  -178.05
  -35.00    50.00      -1.22    2.52    4.05    0.05251   -57.04  RIGHT     6.61361E-01    -3.16    1.01725E+00  -176.58
  -30.00    50.00      -0.44    2.71    4.42    0.03645   -55.20  RIGHT     7.23299E-01     0.56    1.03967E+00  -174.98
  -25.00    50.00       0.19    2.84    4.72    0.02399   -53.63  RIGHT     7.77964E-01     3.82    1.05580E+00  -173.30
  -20.00    50.00       0.69    2.93    4.96    0.01463   -52.33  RIGHT     8.24014E-01     6.72    1.06701E+00  -171.55
  -15.00    50.00       1.06    2.99    5.14    0.00791   -51.31  RIGHT     8.60530E-01     9.29    1.07446E+00  -169.78
  -10.00    50.00       1.33    3.03    5.27    0.00341   -50.58  RIGHT     8.86933E-01    11.60    1.07909E+00  -168.00
   -5.00    50.00       1.48    3.05    5.35    0.00084   -50.15  RIGHT     9.02885E-01    13.65    1.08159E+00  -166.25
    0.00    50.00       1.53    3.06    5.37    0.00000   -50.00  LINEAR    9.08219E-01    15.45    1.08237E+00  -164.55
  -90.00    55.00    -999.99 -999.99 -999.99    0.00000     0.00            5.33764E-12    89.77    1.02716E-11     1.12
  -85.00    55.00     -20.26  -12.99  -12.24    0.42844   -86.43  RIGHT     7.38751E-02   -82.99    1.70691E-01  -179.74
  -80.00    55.00     -15.74   -7.27   -6.69    0.35839   -83.26  RIGHT     1.24311E-01   -74.54    3.29727E-01   179.64
  -75.00    55.00     -13.35   -4.10   -3.61    0.30181   -80.49  RIGHT     1.63722E-01   -64.60    4.74941E-01   179.27
  -70.00    55.00     -11.57   -2.00   -1.54    0.25386   -77.85  RIGHT     2.01018E-01   -53.67    6.04833E-01   179.16
  -65.00    55.00      -9.94   -0.50   -0.03    0.21192   -75.27  RIGHT     2.42326E-01   -42.76    7.18600E-01   179.29
  -60.00    55.00      -8.36    0.60    1.12    0.17470   -72.73  RIGHT     2.90620E-01   -32.78    8.16112E-01   179.66
  -55.00    55.00      -6.85    1.43    2.03    0.14165   -70.26  RIGHT     3.45957E-01   -24.18    8.97840E-01  -179.73
  -50.00    55.00      -5.45    2.06    2.77    0.11257   -67.88  RIGHT     4.06485E-01   -17.02    9.64762E-01  -178.92
  -45.00    55.00      -4.20    2.53    3.36    0.08737   -65.62  RIGHT     4.69510E-01   -11.09    1.01823E+00  -177.91
  -40.00    55.00      -3.11    2.87    3.85    0.06595   -63.52  RIGHT     5.32226E-01    -6.15    1.05987E+00  -176.72
  -35.00    55.00      -2.18    3.13    4.25    0.04817   -61.61  RIGHT     5.92101E-01    -1.98    1.09139E+00  -175.40
  -30.00    55.00      -1.41    3.31    4.57    0.03376   -59.90  RIGHT     6.47045E-01     1.59    1.11456E+00  -173.95
  -25.00    55.00      -0.79    3.44    4.83    0.02241   -58.43  RIGHT     6.95450E-01     4.69    1.13104E+00  -172.43
  -20.00    55.00      -0.29    3.52    5.03    0.01377   -57.21  RIGHT     7.36159E-01     7.42    1.14233E+00  -170.85
  -15.00    55.00       0.08    3.58    5.18    0.00749   -56.25  RIGHT     7.68395E-01     9.83    1.14972E+00  -169.24
  -10.00    55.00       0.34    3.61    5.29    0.00324   -55.55  RIGHT     7.91675E-01    11.96    1.15425E+00  -167.64
   -5.00    55.00       0.49    3.63    5.35    0.00080   -55.14  RIGHT     8.05730E-01    13.83    1.15666E+00  -166.07
    0.00    55.00       0.54    3.64    5.37    0.00000   -55.00  LINEAR    8.10428E-01    15.45    1.15741E+00  -164.55
  -90.00    60.00    -999.99 -999.99 -999.99    0.00000     0.00            4.69994E-12    91.84    1.09624E-11     3.31
  -85.00    60.00     -21.37  -12.42  -11.90    0.35399   -87.30  RIGHT     6.50402E-02   -80.93    1.82152E-01  -177.56
  -80.00    60.00     -16.85   -6.71   -6.30    0.29707   -84.72  RIGHT     1.09402E-01   -72.50    3.51793E-01  -178.21
  -75.00    60.00     -14.46   -3.54   -3.20    0.25126   -82.41  RIGHT     1.44002E-01   -62.58    5.06551E-01  -178.61
  -70.00    60.00     -12.69   -1.44   -1.13    0.21250   -80.17  RIGHT     1.76685E-01   -51.70    6.44787E-01  -178.79
  -65.00    60.00     -11.07    0.05    0.37    0.17857   -77.96  RIGHT     2.12845E-01   -40.84    7.65627E-01  -178.73
  -60.00    60.00      -9.50    1.15    1.51    0.14834   -75.77  RIGHT     2.55086E-01   -30.92    8.68938E-01  -178.44
  -55.00    60.00      -7.99    1.97    2.39    0.12131   -73.63  RIGHT     3.03442E-01   -22.42    9.55249E-01  -177.94
  -50.00    60.00      -6.60    2.59    3.08    0.09729   -71.55  RIGHT     3.56269E-01   -15.36    1.02564E+00  -177.24
  -45.00    60.00      -5.35    3.05    3.64    0.07623   -69.56  RIGHT     4.11191E-01    -9.55    1.08160E+00  -176.36
  -40.00    60.00      -4.27    3.39    4.08    0.05810   -67.70  RIGHT     4.65751E-01    -4.75    1.12490E+00  -175.32
  -35.00    60.00      -3.35    3.64    4.43    0.04283   -65.99  RIGHT     5.17747E-01    -0.73    1.15745E+00  -174.14
  -30.00    60.00      -2.58    3.81    4.71    0.03028   -64.46  RIGHT     5.65377E-01     2.69    1.18114E+00  -172.86
  -25.00    60.00      -1.96    3.94    4.93    0.02026   -63.13  RIGHT     6.07266E-01     5.62    1.19779E+00  -171.50
  -20.00    60.00      -1.47    4.02    5.10    0.01254   -62.02  RIGHT     6.42439E-01     8.17    1.20904E+00  -170.10
  -15.00    60.00      -1.11    4.07    5.22    0.00685   -61.14  RIGHT     6.70253E-01    10.40    1.21629E+00  -168.68
  -10.00    60.00      -0.85    4.10    5.31    0.00298   -60.51  RIGHT     6.90320E-01    12.34    1.22065E+00  -167.26
   -5.00    60.00      -0.70    4.12    5.36    0.00073   -60.13  RIGHT     7.02425E-01    14.02    1.22293E+00  -165.88
    0.00    60.00      -0.65    4.12    5.37    0.00000   -60.00  LINEAR    7.06469E-01    15.45    1.22364E+00  -164.55
  -90.00    65.00    -999.99 -999.99 -999.99    0.00000     0.00            4.00863E-12    94.03    1.15697E-11     5.61
  -85.00    65.00     -22.75  -11.95  -11.61    0.28634   -87.96  RIGHT     5.54678E-02   -78.75    1.92238E-01  -175.27
  -80.00    65.00     -18.24   -6.24   -5.97    0.24083   -85.90  RIGHT     9.32677E-02   -70.34    3.71201E-01  -175.94
  -75.00    65.00     -15.85   -3.07   -2.85    0.20434   -84.01  RIGHT     1.22701E-01   -60.45    5.34331E-01  -176.39
  -70.00    65.00     -14.08   -0.98   -0.78    0.17353   -82.17  RIGHT     1.50458E-01   -49.61    6.79862E-01  -176.62
  -65.00    65.00     -12.47    0.50    0.72    0.14655   -80.34  RIGHT     1.81136E-01   -38.81    8.06857E-01  -176.64
  -60.00    65.00     -10.90    1.60    1.84    0.12247   -78.52  RIGHT     2.16948E-01   -28.97    9.15181E-01  -176.45
  -55.00    65.00      -9.40    2.42    2.69    0.10083   -76.72  RIGHT     2.57910E-01   -20.56    1.00541E+00  -176.06
  -50.00    65.00      -8.01    3.03    3.36    0.08146   -74.97  RIGHT     3.02608E-01   -13.61    1.07873E+00  -175.48
  -45.00    65.00      -6.77    3.48    3.87    0.06433   -73.29  RIGHT     3.49016E-01    -7.93    1.13675E+00  -174.73
  -40.00    65.00      -5.70    3.82    4.28    0.04942   -71.70  RIGHT     3.95047E-01    -3.27    1.18139E+00  -173.83
  -35.00    65.00      -4.79    4.06    4.59    0.03672   -70.23  RIGHT     4.38843E-01     0.59    1.21470E+00  -172.82
  -30.00    65.00      -4.03    4.23    4.83    0.02616   -68.91  RIGHT     4.78897E-01     3.84    1.23872E+00  -171.71
  -25.00    65.00      -3.41    4.34    5.02    0.01762   -67.75  RIGHT     5.14067E-01     6.59    1.25542E+00  -170.53
  -20.00    65.00      -2.93    4.42    5.16    0.01096   -66.78  RIGHT     5.43557E-01     8.96    1.26655E+00  -169.31
  -15.00    65.00      -2.56    4.47    5.25    0.00602   -66.01  RIGHT     5.66848E-01    10.99    1.27359E+00  -168.08
  -10.00    65.00      -2.31    4.50    5.32    0.00263   -65.45  RIGHT     5.83634E-01    12.74    1.27775E+00  -166.86
   -5.00    65.00      -2.16    4.51    5.36    0.00065   -65.11  RIGHT     5.93754E-01    14.22    1.27990E+00  -165.68
    0.00    65.00      -2.11    4.52    5.37    0.00000   -65.00  LINEAR    5.97134E-01    15.45    1.28056E+00  -164.55
  -90.00    70.00    -999.99 -999.99 -999.99    0.00000     0.00            3.26953E-12    96.33    1.20842E-11     8.01
  -85.00    70.00     -24.52  -11.58  -11.36    0.22375   -88.48  RIGHT     4.52363E-02   -76.45    2.00771E-01  -172.88
  -80.00    70.00     -20.01   -5.86   -5.70    0.18849   -86.89  RIGHT     7.60408E-02   -68.06    3.87615E-01  -173.58
  -75.00    70.00     -17.63   -2.70   -2.56    0.16030   -85.41  RIGHT     9.99929E-02   -58.21    5.57810E-01  -174.07
  -70.00    70.00     -15.87   -0.61   -0.48    0.13653   -83.96  RIGHT     1.22548E-01   -47.42    7.09479E-01  -174.37
  -65.00    70.00     -14.26    0.87    1.00    0.11574   -82.51  RIGHT     1.47456E-01   -36.68    8.41631E-01  -174.47
  -60.00    70.00     -12.70    1.96    2.11    0.09715   -81.05  RIGHT     1.76514E-01   -26.92    9.54128E-01  -174.37
  -55.00    70.00     -11.20    2.77    2.94    0.08040   -79.61  RIGHT     2.09727E-01   -18.61    1.04760E+00  -174.09
  -50.00    70.00      -9.81    3.38    3.58    0.06533   -78.20  RIGHT     2.45933E-01   -11.78    1.12330E+00  -173.64
  -45.00    70.00      -8.58    3.83    4.07    0.05191   -76.83  RIGHT     2.83479E-01    -6.24    1.18297E+00  -173.03
  -40.00    70.00      -7.51    4.16    4.44    0.04014   -75.54  RIGHT     3.20671E-01    -1.73    1.22864E+00  -172.29
  -35.00    70.00      -6.60    4.39    4.73    0.03001   -74.34  RIGHT     3.56008E-01     1.97    1.26250E+00  -171.44
  -30.00    70.00      -5.85    4.56    4.94    0.02151   -73.25  RIGHT     3.88279E-01     5.04    1.28673E+00  -170.51
  -25.00    70.00      -5.24    4.67    5.09    0.01457   -72.29  RIGHT     4.16577E-01     7.61    1.30339E+00  -169.51
  -20.00    70.00      -4.76    4.74    5.20    0.00911   -71.49  RIGHT     4.40275E-01     9.78    1.31434E+00  -168.49
  -15.00    70.00      -4.40    4.79    5.28    0.00502   -70.84  RIGHT     4.58971E-01    11.61    1.32116E+00  -167.46
  -10.00    70.00      -4.14    4.81    5.33    0.00220   -70.38  RIGHT     4.72434E-01    13.16    1.32512E+00  -166.45
   -5.00    70.00      -4.00    4.83    5.36    0.00054   -70.09  RIGHT     4.80545E-01    14.43    1.32712E+00  -165.47
    0.00    70.00      -3.95    4.83    5.37    0.00000   -70.00  LINEAR    4.83253E-01    15.45    1.32773E+00  -164.55
  -90.00    75.00    -999.99 -999.99 -999.99    0.00000     0.00            2.48991E-12    98.74    1.24955E-11    10.48
  -85.00    75.00     -26.89  -11.29  -11.17    0.16485   -88.92  RIGHT     3.44459E-02   -74.06    2.07592E-01  -170.41
  -80.00    75.00     -22.38   -5.57   -5.48    0.13903   -87.75  RIGHT     5.78885E-02   -65.69    4.00732E-01  -171.14
  -75.00    75.00     -20.00   -2.41   -2.34    0.11843   -86.67  RIGHT     7.60951E-02   -55.88    5.76562E-01  -171.68
  -70.00    75.00     -18.24   -0.33   -0.26    0.10109   -85.59  RIGHT     9.32203E-02   -45.14    7.33115E-01  -172.04
  -65.00    75.00     -16.64    1.15    1.22    0.08593   -84.51  RIGHT     1.12118E-01   -34.47    8.69355E-01  -172.22
  -60.00    75.00     -15.08    2.24    2.32    0.07236   -83.42  RIGHT     1.34154E-01   -24.80    9.85145E-01  -172.23
  -55.00    75.00     -13.59    3.05    3.14    0.06011   -82.34  RIGHT     1.59325E-01   -16.60    1.08115E+00  -172.06
  -50.00    75.00     -12.21    3.65    3.76    0.04906   -81.27  RIGHT     1.86744E-01    -9.89    1.15870E+00  -171.74
  -45.00    75.00     -10.98    4.09    4.23    0.03916   -80.24  RIGHT     2.15149E-01    -4.49    1.21963E+00  -171.28
  -40.00    75.00      -9.91    4.42    4.58    0.03043   -79.26  RIGHT     2.43256E-01    -0.14    1.26606E+00  -170.70
  -35.00    75.00      -9.01    4.65    4.83    0.02286   -78.34  RIGHT     2.69931E-01     3.39    1.30030E+00  -170.02
  -30.00    75.00      -8.26    4.81    5.02    0.01647   -77.51  RIGHT     2.94263E-01     6.27    1.32463E+00  -169.27
  -25.00    75.00      -7.65    4.92    5.15    0.01121   -76.77  RIGHT     3.15576E-01     8.65    1.34121E+00  -168.46
  -20.00    75.00      -7.17    4.99    5.24    0.00703   -76.15  RIGHT     3.33406E-01    10.63    1.35198E+00  -167.64
  -15.00    75.00      -6.81    5.03    5.31    0.00389   -75.66  RIGHT     3.47460E-01    12.26    1.35859E+00  -166.82
  -10.00    75.00      -6.56    5.05    5.34    0.00171   -75.29  RIGHT     3.57573E-01    13.59    1.36236E+00  -166.01
   -5.00    75.00      -6.42    5.07    5.36    0.00042   -75.07  RIGHT     3.63663E-01    14.65    1.36423E+00  -165.26
    0.00    75.00      -6.37    5.07    5.37    0.00000   -75.00  LINEAR    3.65695E-01    15.45    1.36479E+00  -164.55
  -90.00    80.00    -999.99 -999.99 -999.99    0.00000     0.00            1.67825E-12   101.22    1.27953E-11    13.03
  -85.00    80.00     -30.32  -11.08  -11.03    0.10854   -89.30  RIGHT     2.32168E-02   -71.58    2.12567E-01  -167.89
  -80.00    80.00     -25.81   -5.37   -5.33    0.09161   -88.54  RIGHT     3.90104E-02   -63.24    4.10296E-01  -168.64
  -75.00    80.00     -23.43   -2.21   -2.18    0.07812   -87.83  RIGHT     5.12660E-02   -53.47    5.90230E-01  -169.23
  -70.00    80.00     -21.67   -0.13   -0.10    0.06677   -87.11  RIGHT     6.27837E-02   -42.79    7.50333E-01  -169.66
  -65.00    80.00     -20.07    1.35    1.38    0.05686   -86.40  RIGHT     7.54869E-02   -32.20    8.89536E-01  -169.92
  -60.00    80.00     -18.52    2.44    2.47    0.04800   -85.67  RIGHT     9.02945E-02   -22.62    1.00770E+00  -170.03
  -55.00    80.00     -17.03    3.24    3.28    0.03998   -84.95  RIGHT     1.07201E-01   -14.53    1.10553E+00  -169.98
  -50.00    80.00     -15.65    3.84    3.89    0.03272   -84.24  RIGHT     1.25607E-01    -7.96    1.18440E+00  -169.80
  -45.00    80.00     -14.42    4.28    4.34    0.02621   -83.55  RIGHT     1.44661E-01    -2.70    1.24620E+00  -169.49
  -40.00    80.00     -13.36    4.60    4.67    0.02043   -82.89  RIGHT     1.63500E-01     1.49    1.29316E+00  -169.07
  -35.00    80.00     -12.46    4.83    4.91    0.01541   -82.27  RIGHT     1.81364E-01     4.84    1.32764E+00  -168.56
  -30.00    80.00     -11.71    4.99    5.08    0.01113   -81.71  RIGHT     1.97645E-01     7.54    1.35201E+00  -168.00
  -25.00    80.00     -11.11    5.09    5.20    0.00760   -81.21  RIGHT     2.11895E-01     9.73    1.36851E+00  -167.39
  -20.00    80.00     -10.63    5.16    5.27    0.00478   -80.79  RIGHT     2.23806E-01    11.49    1.37912E+00  -166.77
  -15.00    80.00     -10.28    5.20    5.32    0.00265   -80.45  RIGHT     2.33189E-01    12.91    1.38556E+00  -166.16
  -10.00    80.00     -10.03    5.22    5.35    0.00117   -80.20  RIGHT     2.39937E-01    14.03    1.38917E+00  -165.57
   -5.00    80.00      -9.88    5.24    5.37    0.00029   -80.05  RIGHT     2.43999E-01    14.87    1.39095E+00  -165.03
    0.00    80.00      -9.84    5.24    5.37    0.00000   -80.00  LINEAR    2.45354E-01    15.45    1.39147E+00  -164.55
  -90.00    85.00    -999.99 -999.99 -999.99    0.00000     0.00            8.44710E-13   103.76    1.29777E-11    15.60
  -85.00    85.00     -36.28  -10.96  -10.95    0.05387   -89.66  RIGHT     1.16855E-02   -69.05    2.15595E-01  -165.32
  -80.00    85.00     -31.77   -5.25   -5.24    0.04549   -89.28  RIGHT     1.96325E-02   -60.74    4.16115E-01  -166.10
  -75.00    85.00     -29.40   -2.09   -2.08    0.03881   -88.93  RIGHT     2.57962E-02   -51.01    5.98543E-01  -166.74
  -70.00    85.00     -27.64   -0.01    0.00    0.03320   -88.57  RIGHT     3.15857E-02   -40.39    7.60801E-01  -167.24
  -65.00    85.00     -26.04    1.47    1.48    0.02831   -88.21  RIGHT     3.79690E-02   -29.88    9.01800E-01  -167.59
  -60.00    85.00     -24.49    2.55    2.56    0.02392   -87.85  RIGHT     4.54082E-02   -20.40    1.02140E+00  -167.80
  -55.00    85.00     -23.00    3.36    3.37    0.01996   -87.49  RIGHT     5.38997E-02   -12.43    1.12033E+00  -167.87
  -50.00    85.00     -21.63    3.95    3.96    0.01636   -87.14  RIGHT     6.31405E-02    -5.99    1.19998E+00  -167.82
  -45.00    85.00     -20.40    4.39    4.41    0.01313   -86.79  RIGHT     7.27030E-02    -0.88    1.26231E+00  -167.66
  -40.00    85.00     -19.34    4.71    4.73    0.01026   -86.46  RIGHT     8.21528E-02     3.14    1.30957E+00  -167.41
  -35.00    85.00     -18.44    4.94    4.96    0.00775   -86.15  RIGHT     9.11088E-02     6.32    1.34419E+00  -167.09
  -30.00    85.00     -17.70    5.09    5.12    0.00561   -85.86  RIGHT     9.92669E-02     8.83    1.36857E+00  -166.71
  -25.00    85.00     -17.09    5.20    5.22    0.00384   -85.61  RIGHT     1.06403E-01    10.82    1.38500E+00  -166.30
  -20.00    85.00     -16.62    5.26    5.29    0.00242   -85.40  RIGHT     1.12366E-01    12.38    1.39551E+00  -165.89
  -15.00    85.00     -16.26    5.30    5.33    0.00134   -85.23  RIGHT     1.17061E-01    13.58    1.40183E+00  -165.49
  -10.00    85.00     -16.02    5.32    5.36    0.00059   -85.10  RIGHT     1.20436E-01    14.48    1.40535E+00  -165.13
   -5.00    85.00     -15.87    5.34    5.37    0.00015   -85.03  RIGHT     1.22468E-01    15.09    1.40706E+00  -164.81
    0.00    85.00     -15.82    5.34    5.37    0.00000   -85.00  LINEAR    1.23146E-01    15.45    1.40756E+00  -164.55
  -90.00    90.00    -999.99 -999.99 -999.99    0.00000     0.00            8.63458E-17   -35.83    1.30391E-11    18.20
  -85.00    90.00    -999.99  -10.92  -10.92    0.00000   -90.00  LINEAR    5.61839E-11    76.16    2.16611E-01  -162.73
  -80.00    90.00    -197.97   -5.21   -5.21    0.00000   -90.00  LINEAR    9.61385E-11    81.28    4.18069E-01  -163.54
  -75.00    90.00    -195.48   -2.05   -2.05    0.00000   -90.00  LINEAR    1.28145E-10    85.92    6.01333E-01  -164.23
  -70.00    90.00    -193.77    0.03    0.03    0.00000   -90.00  LINEAR    1.55945E-10    90.17    7.64314E-01  -164.79
  -65.00    90.00    -192.49    1.51    1.51    0.00000   -90.00  LINEAR    1.80778E-10    94.01    9.05914E-01  -165.23
  -60.00    90.00    -191.50    2.59    2.59    0.00000   -90.00  LINEAR    2.02464E-10    97.40    1.02600E+00  -165.54
  -55.00    90.00    -190.78    3.39    3.39    0.00000   -90.00  LINEAR    2.20085E-10   100.33    1.12529E+00  -165.74
  -50.00    90.00    -190.30    3.99    3.99    0.00000   -90.00  LINEAR    2.32463E-10   102.82    1.20521E+00  -165.83
  -45.00    90.00    -190.08    4.43    4.43    0.00000    90.00  LINEAR    2.38498E-10   104.94    1.26770E+00  -165.82
  -40.00    90.00    -190.12    4.75    4.75    0.00000    90.00  LINEAR    2.37383E-10   106.73    1.31506E+00  -165.74
  -35.00    90.00    -190.45    4.97    4.97    0.00000    90.00  LINEAR    2.28717E-10   108.27    1.34972E+00  -165.59
  -30.00    90.00    -191.08    5.13    5.13    0.00000    90.00  LINEAR    2.12530E-10   109.60    1.37411E+00  -165.41
  -25.00    90.00    -192.09    5.23    5.23    0.00000    90.00  LINEAR    1.89257E-10   110.80    1.39051E+00  -165.20
  -20.00    90.00    -193.57    5.30    5.30    0.00000    90.00  LINEAR    1.59673E-10   111.96    1.40099E+00  -165.00
  -15.00    90.00    -195.71    5.34    5.34    0.00000    90.00  LINEAR    1.24814E-10   113.26    1.40727E+00  -164.82
  -10.00    90.00    -198.95    5.36    5.36    0.00000    90.00  LINEAR    8.59112E-11   115.18    1.41076E+00  -164.67
   -5.00    90.00    -999.99    5.37    5.37    0.00000    90.00  LINEAR    4.44228E-11   119.95    1.41244E+00  -164.58
    0.00    90.00    -999.99    5.37    5.37    0.00000    90.00  LINEAR    7.21081E-12  -164.55    1.41294E+00  -164.55
  -90.00    95.00    -999.99 -999.99 -999.99    0.00000     0.00            8.44704E-13   -71.04    1.29776E-11    20.80
  -85.00    95.00     -36.28  -10.96  -10.95    0.05387    89.66  LEFT      1.16855E-02   116.13    2.15595E-01  -160.14
  -80.00    95.00     -31.77   -5.25   -5.24    0.04549    89.28  LEFT      1.96325E-02   124.38    4.16115E-01  -160.98
  -75.00    95.00     -29.40   -2.09   -2.08    0.03881    88.93  LEFT      2.57962E-02   134.01    5.98543E-01  -161.72
  -70.00    95.00     -27.64   -0.01    0.00    0.03320    88.57  LEFT      3.15857E-02   144.49    7.60801E-01  -162.35
  -65.00    95.00     -26.04    1.47    1.48    0.02831    88.21  LEFT      3.79690E-02   154.83    9.01800E-01  -162.87
  -60.00    95.00     -24.49    2.55    2.56    0.02392    87.85  LEFT      4.54082E-02   164.10    1.02140E+00  -163.29
  -55.00    95.00     -23.00    3.36    3.37    0.01996    87.49  LEFT      5.38997E-02   171.83    1.12033E+00  -163.61
  -50.00    95.00     -21.63    3.95    3.96    0.01636    87.14  LEFT      6.31405E-02   178.00    1.19998E+00  -163.84
  -45.00    95.00     -20.40    4.39    4.41    0.01313    86.79  LEFT      7.27030E-02  -177.21    1.26231E+00  -163.99
  -40.00    95.00     -19.34    4.71    4.73    0.01026    86.46  LEFT      8.21528E-02  -173.52    1.30957E+00  -164.07
  -35.00    95.00     -18.44    4.94    4.96    0.00775    86.15  LEFT      9.11088E-02  -170.70    1.34419E+00  -164.10
  -30.00    95.00     -17.70    5.09    5.12    0.00561    85.86  LEFT      9.92669E-02  -168.57    1.36857E+00  -164.11
  -25.00    95.00     -17.09    5.20    5.22    0.00384    85.61  LEFT      1.06403E-01  -166.99    1.38500E+00  -164.10
  -20.00    95.00     -16.62    5.26    5.29    0.00242    85.40  LEFT      1.12366E-01  -165.84    1.39551E+00  -164.11
  -15.00    95.00     -16.26    5.30    5.33    0.00134    85.23  LEFT      1.17061E-01  -165.07    1.40183E+00  -164.14
  -10.00    95.00     -16.02    5.32    5.36    0.00059    85.10  LEFT      1.20436E-01  -164.62    1.40535E+00  -164.22
   -5.00    95.00     -15.87    5.34    5.37    0.00015    85.03  LEFT      1.22468E-01  -164.45    1.40706E+00  -164.36
    0.00    95.00     -15.82    5.34    5.37    0.00000    85.00  LINEAR    1.23146E-01  -164.55    1.40756E+00  -164.55
  -90.00   100.00    -999.99 -999.99 -999.99    0.00000     0.00            1.67840E-12   -68.42    1.27952E-11    23.39
  -85.00   100.00     -30.32  -11.08  -11.03    0.10854    89.30  LEFT      2.32168E-02   118.74    2.12567E-01  -157.57
  -80.00   100.00     -25.81   -5.37   -5.33    0.09161    88.54  LEFT      3.90104E-02   126.96    4.10296E-01  -158.44
  -75.00   100.00     -23.43   -2.21   -2.18    0.07812    87.83  LEFT      5.12660E-02   136.53    5.90230E-01  -159.22
  -70.00   100.00     -21.67   -0.13   -0.10    0.06677    87.11  LEFT      6.27837E-02   146.94    7.50333E-01  -159.92
  -65.00   100.00     -20.07    1.35    1.38    0.05686    86.40  LEFT      7.54869E-02   157.19    8.89536E-01  -160.53
  -60.00   100.00     -18.52    2.44    2.47    0.04800    85.67  LEFT      9.02945E-02   166.35    1.00770E+00  -161.06
  -55.00   100.00     -17.03    3.24    3.28    0.03998    84.95  LEFT      1.07201E-01   173.95    1.10553E+00  -161.50
  -50.00   100.00     -15.65    3.84    3.89    0.03272    84.24  LEFT      1.25607E-01   179.98    1.18440E+00  -161.86
  -45.00   100.00     -14.42    4.28    4.34    0.02621    83.55  LEFT      1.44661E-01  -175.38    1.24620E+00  -162.16
  -40.00   100.00     -13.36    4.60    4.67    0.02043    82.89  LEFT      1.63500E-01  -171.85    1.29316E+00  -162.41
  -35.00   100.00     -12.46    4.83    4.91    0.01541    82.27  LEFT      1.81364E-01  -169.22    1.32764E+00  -162.62
  -30.00   100.00     -11.71    4.99    5.08    0.01113    81.71  LEFT      1.97645E-01  -167.28    1.35201E+00  -162.82
  -25.00   100.00     -11.11    5.09    5.20    0.00760    81.21  LEFT      2.11895E-01  -165.89    1.36851E+00  -163.01
  -20.00   100.00     -10.63    5.16    5.27    0.00478    80.79  LEFT      2.23806E-01  -164.96    1.37912E+00  -163.23
  -15.00   100.00     -10.28    5.20    5.32    0.00265    80.45  LEFT      2.33189E-01  -164.41    1.38556E+00  -163.48
  -10.00   100.00     -10.03    5.22    5.35    0.00117    80.20  LEFT      2.39937E-01  -164.17    1.38917E+00  -163.77
   -5.00   100.00      -9.88    5.24    5.37    0.00029    80.05  LEFT      2.43999E-01  -164.23    1.39095E+00  -164.13
    0.00   100.00      -9.84    5.24    5.37    0.00000    80.00  LINEAR    2.45354E-01  -164.55    1.39147E+00  -164.55
  -90.00   105.00    -999.99 -999.99 -999.99    0.00000     0.00            2.48978E-12   -65.83    1.24951E-11    25.93
  -85.00   105.00     -26.89  -11.29  -11.17    0.16485    88.92  LEFT      3.44459E-02   121.33    2.07592E-01  -155.03
  -80.00   105.00     -22.38   -5.57   -5.48    0.13903    87.75  LEFT      5.78885E-02   129.51    4.00732E-01  -155.93
[...]
  -40.00   320.00      -0.71    0.66    3.04    0.08125    49.54  LEFT      7.01883E-01    -9.81    8.21104E-01    -0.40
  -35.00   320.00       0.24    0.93    3.61    0.05725    47.29  LEFT      7.82824E-01    -5.25    8.47733E-01     1.32
  -30.00   320.00       1.03    1.14    4.10    0.03885    45.34  LEFT      8.57527E-01    -1.27    8.67849E-01     3.18
  -25.00   320.00       1.68    1.28    4.50    0.02507    43.70  LEFT      9.23700E-01     2.28    8.82629E-01     5.15
  -20.00   320.00       2.19    1.39    4.82    0.01505    42.35  LEFT      9.79629E-01     5.46    8.93142E-01     7.19
  -15.00   320.00       2.58    1.46    5.06    0.00803    41.32  LEFT      1.02411E+00     8.34    9.00315E-01     9.27
  -10.00   320.00       2.84    1.50    5.23    0.00343    40.58  LEFT      1.05634E+00    10.96    9.04891E-01    11.36
   -5.00   320.00       3.00    1.52    5.34    0.00084    40.15  LEFT      1.07585E+00    13.33    9.07415E-01    13.43
    0.00   320.00       3.06    1.53    5.37    0.00000    40.00  LINEAR    1.08237E+00    15.45    9.08219E-01    15.45
  -90.00   325.00    -999.99 -999.99 -999.99    0.00000     0.00            7.29596E-12    83.03    6.90314E-12   173.83
  -85.00   325.00     -17.54  -16.44  -13.94    0.83495    67.58  LEFT      1.01040E-01   -89.72    1.14749E-01    -7.00
  -80.00   325.00     -13.01  -10.71   -8.70    0.67432    66.79  LEFT      1.70316E-01   -81.21    2.21867E-01    -7.54
  -75.00   325.00     -10.59   -7.53   -5.78    0.54619    64.42  LEFT      2.24889E-01   -71.19    3.20062E-01    -7.77
  -70.00   325.00      -8.78   -5.41   -3.77    0.43950    61.59  LEFT      2.76945E-01   -60.16    4.08431E-01    -7.69
  -65.00   325.00      -7.13   -3.89   -2.21    0.34914    58.57  LEFT      3.34879E-01   -49.10    4.86483E-01    -7.32
  -60.00   325.00      -5.53   -2.76   -0.92    0.27273    55.49  LEFT      4.02835E-01   -38.91    5.54115E-01    -6.65
  -55.00   325.00      -3.99   -1.90    0.19    0.20896    52.45  LEFT      4.81020E-01   -30.04    6.11584E-01    -5.71
  -50.00   325.00      -2.56   -1.25    1.16    0.15674    49.53  LEFT      5.67003E-01   -22.53    6.59443E-01    -4.51
  -45.00   325.00      -1.28   -0.75    2.01    0.11493    46.79  LEFT      6.57117E-01   -16.20    6.98477E-01    -3.07
  -40.00   325.00      -0.16   -0.37    2.75    0.08219    44.30  LEFT      7.47441E-01   -10.82    7.29631E-01    -1.42
  -35.00   325.00       0.80   -0.08    3.39    0.05710    42.08  LEFT      8.34329E-01    -6.16    7.53938E-01     0.42
  -30.00   325.00       1.59    0.13    3.93    0.03828    40.17  LEFT      9.14667E-01    -2.05    7.72446E-01     2.39
  -25.00   325.00       2.25    0.28    4.38    0.02446    38.56  LEFT      9.85956E-01     1.61    7.86169E-01     4.48
  -20.00   325.00       2.76    0.39    4.75    0.01457    37.26  LEFT      1.04630E+00     4.92    7.96031E-01     6.65
  -15.00   325.00       3.15    0.46    5.02    0.00772    36.26  LEFT      1.09436E+00     7.94    8.02830E-01     8.86
  -10.00   325.00       3.42    0.51    5.22    0.00329    35.56  LEFT      1.12923E+00    10.69    8.07212E-01    11.08
   -5.00   325.00       3.59    0.53    5.33    0.00080    35.14  LEFT      1.15034E+00    13.19    8.09648E-01    13.29
    0.00   325.00       3.64    0.54    5.37    0.00000    35.00  LINEAR    1.15741E+00    15.45    8.10428E-01    15.45
  -90.00   330.00    -999.99 -999.99 -999.99    0.00000     0.00            7.63502E-12    81.77    5.96048E-12   172.44
  -85.00   330.00     -17.15  -17.71  -14.41    0.86476    31.61  LEFT      1.05753E-01   -90.97    9.90863E-02    -8.39
  -80.00   330.00     -12.61  -11.98   -9.27    0.74079    52.13  LEFT      1.78333E-01   -82.46    1.91625E-01    -8.91
  -75.00   330.00     -10.19   -8.80   -6.43    0.59970    54.85  LEFT      2.35616E-01   -72.43    2.76533E-01    -9.11
  -70.00   330.00      -8.37   -6.67   -4.43    0.47701    53.93  LEFT      2.90359E-01   -61.38    3.53053E-01    -9.00
  -65.00   330.00      -6.72   -5.15   -2.85    0.37295    51.83  LEFT      3.51349E-01   -50.30    4.20769E-01    -8.58
  -60.00   330.00      -5.11   -4.01   -1.52    0.28610    49.24  LEFT      4.22945E-01   -40.07    4.79594E-01    -7.86
  -55.00   330.00      -3.56   -3.15   -0.34    0.21508    46.48  LEFT      5.05396E-01   -31.15    5.29734E-01    -6.85
  -50.00   330.00      -2.12   -2.49    0.71    0.15833    43.73  LEFT      5.96182E-01   -23.58    5.71647E-01    -5.57
  -45.00   330.00      -0.84   -1.98    1.64    0.11404    41.13  LEFT      6.91474E-01   -17.18    6.05986E-01    -4.05
  -40.00   330.00       0.29   -1.60    2.46    0.08024    38.75  LEFT      7.87144E-01   -11.70    6.33540E-01    -2.31
  -35.00   330.00       1.25   -1.30    3.17    0.05496    36.64  LEFT      8.79334E-01    -6.95    6.55171E-01    -0.38
  -30.00   330.00       2.06   -1.09    3.77    0.03640    34.82  LEFT      9.64719E-01    -2.75    6.71760E-01     1.70
  -25.00   330.00       2.71   -0.93    4.27    0.02303    33.31  LEFT      1.04061E+00     1.02    6.84159E-01     3.89
  -20.00   330.00       3.24   -0.81    4.68    0.01360    32.10  LEFT      1.10495E+00     4.44    6.93148E-01     6.18
  -15.00   330.00       3.63   -0.74    4.98    0.00717    31.17  LEFT      1.15625E+00     7.57    6.99400E-01     8.50
  -10.00   330.00       3.91   -0.69    5.20    0.00304    30.52  LEFT      1.19350E+00    10.44    7.03464E-01    10.84
   -5.00   330.00       4.07   -0.66    5.33    0.00074    30.13  LEFT      1.21608E+00    13.07    7.05738E-01    13.17
    0.00   330.00       4.12   -0.65    5.37    0.00000    30.00  LINEAR    1.22364E+00    15.45    7.06469E-01    15.45
  -90.00   335.00    -999.99 -999.99 -999.99    0.00000     0.00            7.91674E-12    80.70    4.99472E-12   171.25
  -85.00   335.00     -16.83  -19.25  -14.86    0.73448    12.48  LEFT      1.09668E-01   -92.04    8.30358E-02    -9.58
  -80.00   335.00     -12.29  -13.52   -9.85    0.72163    31.77  LEFT      1.85003E-01   -83.53    1.60617E-01   -10.08
  -75.00   335.00      -9.86  -10.33   -7.08    0.61346    41.62  LEFT      2.44564E-01   -73.48    2.31858E-01   -10.27
  -70.00   335.00      -8.04   -8.20   -5.11    0.49086    44.15  LEFT      3.01576E-01   -62.42    2.96145E-01   -10.12
  -65.00   335.00      -6.38   -6.67   -3.51    0.38020    43.72  LEFT      3.65158E-01   -51.32    3.53136E-01    -9.66
  -60.00   335.00      -4.77   -5.53   -2.12    0.28708    42.02  LEFT      4.39850E-01   -41.07    4.02754E-01    -8.89
  -55.00   335.00      -3.21   -4.66   -0.87    0.21187    39.79  LEFT      5.25939E-01   -32.11    4.45165E-01    -7.83
  -50.00   335.00      -1.77   -3.99    0.27    0.15305    37.40  LEFT      6.20837E-01   -24.48    4.80738E-01    -6.49
  -45.00   335.00      -0.48   -3.48    1.29    0.10828    35.05  LEFT      7.20578E-01   -18.01    5.09999E-01    -4.90
  -40.00   335.00       0.65   -3.09    2.18    0.07496    32.88  LEFT      8.20864E-01   -12.47    5.33589E-01    -3.08
  -35.00   335.00       1.62   -2.79    2.96    0.05063    30.96  LEFT      9.17651E-01    -7.63    5.52208E-01    -1.07
  -30.00   335.00       2.43   -2.57    3.63    0.03315    29.31  LEFT      1.00743E+00    -3.35    5.66577E-01     1.10
  -25.00   335.00       3.10   -2.40    4.17    0.02077    27.95  LEFT      1.08735E+00     0.52    5.77389E-01     3.39
  -20.00   335.00       3.62   -2.28    4.61    0.01218    26.86  LEFT      1.15518E+00     4.03    5.85285E-01     5.77
  -15.00   335.00       4.02   -2.20    4.95    0.00639    26.04  LEFT      1.20934E+00     7.26    5.90819E-01     8.19
  -10.00   335.00       4.30   -2.15    5.19    0.00270    25.46  LEFT      1.24869E+00    10.24    5.94439E-01    10.63
   -5.00   335.00       4.46   -2.12    5.32    0.00065    25.11  LEFT      1.27256E+00    12.96    5.96477E-01    13.06
    0.00   335.00       4.52   -2.11    5.37    0.00000    25.00  LINEAR    1.28056E+00    15.45    5.97134E-01    15.45
  -90.00   340.00    -999.99 -999.99 -999.99    0.00000     0.00            8.14295E-12    79.81    4.01198E-12   170.26
  -85.00   340.00     -16.58  -21.15  -15.28    0.58058     6.79  LEFT      1.12815E-01   -92.93    6.67030E-02   -10.56
  -80.00   340.00     -12.04  -15.42  -10.40    0.61118    17.85  LEFT      1.90372E-01   -84.40    1.29046E-01   -11.06
  -75.00   340.00      -9.61  -12.23   -7.71    0.56060    27.97  LEFT      2.51782E-01   -74.35    1.86336E-01   -11.22
  -70.00   340.00      -7.79  -10.10   -5.78    0.46375    33.14  LEFT      3.10648E-01   -63.29    2.38091E-01   -11.05
  -65.00   340.00      -6.12   -8.56   -4.16    0.36090    34.56  LEFT      3.76354E-01   -52.17    2.84041E-01   -10.56
  -60.00   340.00      -4.50   -7.42   -2.71    0.27000    33.99  LEFT      4.53587E-01   -41.89    3.24125E-01    -9.75
  -55.00   340.00      -2.94   -6.54   -1.37    0.19621    32.46  LEFT      5.42669E-01   -32.90    3.58468E-01    -8.64
  -50.00   340.00      -1.49   -5.87   -0.14    0.13930    30.55  LEFT      6.40962E-01   -25.23    3.87358E-01    -7.25
  -45.00   340.00      -0.20   -5.35    0.96    0.09690    28.57  LEFT      7.44391E-01   -18.71    4.11203E-01    -5.60
  -40.00   340.00       0.94   -4.95    1.94    0.06608    26.72  LEFT      8.48519E-01   -13.10    4.30502E-01    -3.72
  -35.00   340.00       1.92   -4.65    2.78    0.04406    25.07  LEFT      9.49146E-01    -8.20    4.45804E-01    -1.64
  -30.00   340.00       2.73   -4.42    3.50    0.02854    23.66  LEFT      1.04261E+00    -3.84    4.57673E-01     0.60
  -25.00   340.00       3.40   -4.25    4.09    0.01773    22.49  LEFT      1.12591E+00     0.10    4.66655E-01     2.97
  -20.00   340.00       3.93   -4.13    4.56    0.01033    21.57  LEFT      1.19670E+00     3.69    4.73254E-01     5.43
  -15.00   340.00       4.33   -4.04    4.92    0.00539    20.87  LEFT      1.25326E+00     7.01    4.77905E-01     7.93
  -10.00   340.00       4.61   -3.99    5.17    0.00227    20.38  LEFT      1.29440E+00    10.06    4.80965E-01    10.46
   -5.00   340.00       4.78   -3.96    5.32    0.00055    20.10  LEFT      1.31936E+00    12.88    4.82695E-01    12.97
    0.00   340.00       4.83   -3.95    5.37    0.00000    20.00  LINEAR    1.32773E+00    15.45    4.83253E-01    15.45
  -90.00   345.00    -999.99 -999.99 -999.99    0.00000     0.00            8.31608E-12    79.12    3.01761E-12   169.48
  -85.00   345.00     -16.40  -23.62  -15.65    0.42969     4.11  LEFT      1.15223E-01   -93.62    5.01730E-02   -11.34
  -80.00   345.00     -11.85  -17.89  -10.89    0.46565    10.47  LEFT      1.94488E-01   -85.09    9.70798E-02   -11.82
  -75.00   345.00      -9.42  -14.70   -8.29    0.45060    17.54  LEFT      2.57324E-01   -75.03    1.40210E-01   -11.97
  -70.00   345.00      -7.59  -12.56   -6.39    0.38928    22.72  LEFT      3.17629E-01   -63.96    1.79208E-01   -11.78
  -65.00   345.00      -5.92  -11.03   -4.75    0.30849    25.12  LEFT      3.84987E-01   -52.83    2.13875E-01   -11.26
  -60.00   345.00      -4.30   -9.88   -3.24    0.23067    25.47  LEFT      4.64200E-01   -42.54    2.44164E-01   -10.42
  -55.00   345.00      -2.74   -9.00   -1.81    0.16590    24.63  LEFT      5.55622E-01   -33.52    2.70166E-01    -9.28
  -50.00   345.00      -1.29   -8.32   -0.50    0.11612    23.27  LEFT      6.56574E-01   -25.81    2.92088E-01    -7.84
  -45.00   345.00       0.02   -7.80    0.68    0.07961    21.75  LEFT      7.62901E-01   -19.25    3.10232E-01    -6.15
  -40.00   345.00       1.16   -7.39    1.73    0.05358    20.29  LEFT      8.70057E-01   -13.60    3.24964E-01    -4.22
  -35.00   345.00       2.14   -7.09    2.63    0.03533    18.98  LEFT      9.73722E-01    -8.65    3.36687E-01    -2.09
  -30.00   345.00       2.96   -6.85    3.39    0.02268    17.87  LEFT      1.07011E+00    -4.23    3.45816E-01     0.21
  -25.00   345.00       3.63   -6.68    4.02    0.01399    16.95  LEFT      1.15610E+00    -0.23    3.52755E-01     2.64
  -20.00   345.00       4.16   -6.56    4.51    0.00811    16.23  LEFT      1.22924E+00     3.43    3.57876E-01     5.16
  -15.00   345.00       4.57   -6.47    4.89    0.00421    15.68  LEFT      1.28773E+00     6.80    3.61503E-01     7.73
  -10.00   345.00       4.85   -6.41    5.16    0.00177    15.30  LEFT      1.33030E+00     9.93    3.63898E-01    10.33
   -5.00   345.00       5.01   -6.38    5.32    0.00043    15.07  LEFT      1.35613E+00    12.81    3.65256E-01    12.91
    0.00   345.00       5.07   -6.37    5.37    0.00000    15.00  LINEAR    1.36479E+00    15.45    3.65695E-01    15.45
  -90.00   350.00    -999.99 -999.99 -999.99    0.00000     0.00            8.43801E-12    78.63    2.01554E-12   168.93
  -85.00   350.00     -16.27  -27.13  -15.93    0.28352     2.42  LEFT      1.16921E-01   -94.11    3.35128E-02   -11.89
  -80.00   350.00     -11.72  -21.39  -11.28    0.31142     6.01  LEFT      1.97393E-01   -85.58    6.48507E-02   -12.37
  -75.00   350.00      -9.29  -18.20   -8.76    0.31040    10.24  LEFT      2.61243E-01   -75.52    9.36781E-02   -12.51
  -70.00   350.00      -7.46  -16.06   -6.90    0.27742    13.93  LEFT      3.22573E-01   -64.44    1.19761E-01   -12.31
  -65.00   350.00      -5.79  -14.53   -5.24    0.22462    16.14  LEFT      3.91110E-01   -53.31    1.42968E-01   -11.77
  -60.00   350.00      -4.16  -13.37   -3.67    0.16889    16.84  LEFT      4.71740E-01   -43.00    1.63267E-01   -10.91
  -55.00   350.00      -2.59  -12.49   -2.17    0.12083    16.51  LEFT      5.64837E-01   -33.96    1.80718E-01    -9.74
  -50.00   350.00      -1.14  -11.81   -0.78    0.08373    15.67  LEFT      6.67698E-01   -26.23    1.95457E-01    -8.27
  -45.00   350.00       0.17  -11.28    0.47    0.05677    14.66  LEFT      7.76111E-01   -19.64    2.07679E-01    -6.54
  -40.00   350.00       1.31  -10.88    1.57    0.03782    13.65  LEFT      8.85452E-01   -13.96    2.17626E-01    -4.58
  -35.00   350.00       2.29  -10.57    2.51    0.02472    12.75  LEFT      9.91315E-01    -8.97    2.25561E-01    -2.41
  -30.00   350.00       3.12  -10.33    3.31    0.01576    11.97  LEFT      1.08982E+00    -4.51    2.31759E-01    -0.07
  -25.00   350.00       3.79  -10.16    3.96    0.00967    11.34  LEFT      1.17777E+00    -0.47    2.36485E-01     2.40
  -20.00   350.00       4.33  -10.03    4.48    0.00558    10.84  LEFT      1.25262E+00     3.24    2.39983E-01     4.97
  -15.00   350.00       4.73   -9.94    4.88    0.00289    10.47  LEFT      1.31251E+00     6.66    2.42469E-01     7.59
  -10.00   350.00       5.01   -9.88    5.15    0.00121    10.20  LEFT      1.35612E+00     9.83    2.44116E-01    10.23
   -5.00   350.00       5.18   -9.85    5.32    0.00029    10.05  LEFT      1.38260E+00    12.76    2.45051E-01    12.86
    0.00   350.00       5.24   -9.84    5.37    0.00000    10.00  LINEAR    1.39147E+00    15.45    2.45354E-01    15.45
  -90.00   355.00    -999.99 -999.99 -999.99    0.00000     0.00            8.51061E-12    78.33    1.00884E-12   168.59
  -85.00   355.00     -16.20  -33.14  -16.11    0.14086     1.13  LEFT      1.17931E-01   -94.41    1.67746E-02   -12.23
  -80.00   355.00     -11.65  -27.40  -11.53    0.15569     2.77  LEFT      1.99121E-01   -85.88    3.24625E-02   -12.71
  -75.00   355.00      -9.21  -24.21   -9.08    0.15745     4.74  LEFT      2.63576E-01   -75.82    4.68976E-02   -12.84
  -70.00   355.00      -7.38  -22.07   -7.23    0.14350     6.59  LEFT      3.25520E-01   -64.74    5.99636E-02   -12.63
  -65.00   355.00      -5.70  -20.53   -5.56    0.11801     7.84  LEFT      3.94766E-01   -53.60    7.15954E-02   -12.08
  -60.00   355.00      -4.07  -19.38   -3.95    0.08929     8.35  LEFT      4.76246E-01   -43.28    8.17771E-02   -11.20
  -55.00   355.00      -2.51  -18.49   -2.40    0.06377     8.27  LEFT      5.70350E-01   -34.23    9.05378E-02   -10.01
  -50.00   355.00      -1.05  -17.81   -0.96    0.04394     7.88  LEFT      6.74361E-01   -26.49    9.79443E-02    -8.53
  -45.00   355.00       0.26  -17.28    0.33    0.02959     7.37  LEFT      7.84032E-01   -19.88    1.04094E-01    -6.78
  -40.00   355.00       1.40  -16.87    1.47    0.01958     6.86  LEFT      8.94693E-01   -14.17    1.09105E-01    -4.80
  -35.00   355.00       2.39  -16.56    2.44    0.01273     6.40  LEFT      1.00188E+00    -9.16    1.13110E-01    -2.60
  -30.00   355.00       3.21  -16.32    3.26    0.00808     6.01  LEFT      1.10168E+00    -4.68    1.16243E-01    -0.24
  -25.00   355.00       3.89  -16.15    3.93    0.00494     5.68  LEFT      1.19081E+00    -0.61    1.18636E-01     2.26
  -20.00   355.00       4.42  -16.02    4.46    0.00285     5.43  LEFT      1.26670E+00     3.12    1.20412E-01     4.85
  -15.00   355.00       4.83  -15.93    4.87    0.00147     5.24  LEFT      1.32745E+00     6.57    1.21676E-01     7.50
  -10.00   355.00       5.11  -15.87    5.15    0.00062     5.10  LEFT      1.37169E+00     9.77    1.22514E-01    10.17
   -5.00   355.00       5.28  -15.83    5.32    0.00015     5.03  LEFT      1.39855E+00    12.73    1.22991E-01    12.83
    0.00   355.00       5.34  -15.82    5.37    0.00000     5.00  LINEAR    1.40756E+00    15.45    1.23146E-01    15.45
  -90.00   360.00    -999.99 -999.99 -999.99    0.00000     0.00            8.53462E-12    78.23    2.36077E-22   -11.53
  -85.00   360.00     -16.17 -999.99  -16.17    0.00000     0.00  LINEAR    1.18266E-01   -94.51    3.92534E-12   167.66
  -80.00   360.00     -11.62 -999.99  -11.62    0.00000     0.00  LINEAR    1.99694E-01   -85.98    7.59656E-12   167.18
  -75.00   360.00      -9.19 -999.99   -9.19    0.00000     0.00  LINEAR    2.64351E-01   -75.91    1.09749E-11   167.05
  -70.00   360.00      -7.35 -999.99   -7.35    0.00000     0.00  LINEAR    3.26499E-01   -64.83    1.40332E-11   167.27
  -65.00   360.00      -5.68 -999.99   -5.68    0.00000     0.00  LINEAR    3.95981E-01   -53.69    1.67564E-11   167.82
  -60.00   360.00      -4.05 -999.99   -4.05    0.00000     0.00  LINEAR    4.77745E-01   -43.37    1.91406E-11   168.70
  -55.00   360.00      -2.48 -999.99   -2.48    0.00000     0.00  LINEAR    5.72184E-01   -34.32    2.11927E-11   169.90
  -50.00   360.00      -1.02 -999.99   -1.02    0.00000     0.00  LINEAR    6.76579E-01   -26.57    2.29281E-11   171.38
  -45.00   360.00       0.28 -999.99    0.28    0.00000     0.00  LINEAR    7.86671E-01   -19.96    2.43697E-11   173.14
  -40.00   360.00       1.43 -999.99    1.43    0.00000     0.00  LINEAR    8.97773E-01   -14.24    2.55450E-11   175.13
  -35.00   360.00       2.42 -999.99    2.42    0.00000     0.00  LINEAR    1.00541E+00    -9.22    2.64847E-11   177.33
  -30.00   360.00       3.24 -999.99    3.24    0.00000     0.00  LINEAR    1.10563E+00    -4.74    2.72202E-11   179.71
  -25.00   360.00       3.92 -999.99    3.92    0.00000     0.00  LINEAR    1.19516E+00    -0.66    2.77825E-11  -177.79
  -20.00   360.00       4.45 -999.99    4.45    0.00000     0.00  LINEAR    1.27140E+00     3.08    2.81999E-11  -175.19
  -15.00   360.00       4.86 -999.99    4.86    0.00000     0.00  LINEAR    1.33244E+00     6.54    2.84971E-11  -172.53
  -10.00   360.00       5.15 -999.99    5.15    0.00000     0.00  LINEAR    1.37689E+00     9.75    2.86945E-11  -169.85
   -5.00   360.00       5.32 -999.99    5.32    0.00000     0.00  LINEAR    1.40389E+00    12.72    2.88068E-11  -167.18
    0.00   360.00       5.37 -999.99    5.37    0.00000     0.00  LINEAR    1.41294E+00    15.45    2.88432E-11  -164.55


   AVERAGE POWER GAIN= 1.27647E+00       SOLID ANGLE USED IN AVERAGING=( 2.0000)*PI STERADIANS.








 ***** DATA CARD NO.  6   EN   0    19    73  1003 -9.00000E+01  0.00000E+00  5.00000E+00  5.00000E+00  0.00000E+00  0.00000E+00

 RUN TIME =     0.203
