1



                                 *********************************************

                                    NUMERICAL ELECTROMAGNETICS CODE (NEC-2D)

                                 *********************************************




                                     - - - - COMMENTS - - - -


                                                                                                                 Test,,,,,,,,
                                                                             




                                 - - - STRUCTURE SPECIFICATION - - -

                                     COORDINATES MUST BE INPUT IN
                                     METERS OR BE SCALED TO METERS
                                     BEFORE STRUCTURE INPUT IS ENDED


  WIRE                                                                               NO. OF    FIRST  LAST     TAG
  NO.        X1         Y1         Z1          X2         Y2         Z2      RADIUS   SEG.     SEG.   SEG.     NO.
     1   -3.30000    0.00000   10.00000    -3.24987    0.00000    9.42696    0.00100      3        1     3       1
     2   -3.24987    0.00000    9.42696    -3.10099    0.00000    8.87133    0.00100      3        4     6       2
     3   -3.10099    0.00000    8.87133    -2.85788    0.00000    8.35000    0.00100      3        7     9       3
     4   -2.85788    0.00000    8.35000    -2.52795    0.00000    7.87880    0.00100      3       10    12       4
     5   -2.52795    0.00000    7.87880    -2.12120    0.00000    7.47205    0.00100      3       13    15       5
     6   -2.12120    0.00000    7.47205    -1.65000    0.00000    7.14212    0.00100      3       16    18       6
     7   -1.65000    0.00000    7.14212    -1.12867    0.00000    6.89901    0.00100      3       19    21       7
     8   -1.12867    0.00000    6.89901    -0.57304    0.00000    6.75013    0.00100      3       22    24       8
     9   -0.57304    0.00000    6.75013    -0.00000    0.00000    6.70000    0.00100      3       25    27       9
    10   -0.00000    0.00000    6.70000     0.57304    0.00000    6.75013    0.00100      3       28    30      10
    11    0.57304    0.00000    6.75013     1.12867    0.00000    6.89901    0.00100      3       31    33      11
    12    1.12867    0.00000    6.89901     1.65000    0.00000    7.14212    0.00100      3       34    36      12
    13    1.65000    0.00000    7.14212     2.12120    0.00000    7.47205    0.00100      3       37    39      13
    14    2.12120    0.00000    7.47205     2.52795    0.00000    7.87880    0.00100      3       40    42      14
    15    2.52795    0.00000    7.87880     2.85788    0.00000    8.35000    0.00100      3       43    45      15
    16    2.85788    0.00000    8.35000     3.10099    0.00000    8.87133    0.00100      3       46    48      16
    17    3.10099    0.00000    8.87133     3.24987    0.00000    9.42696    0.00100      3       49    51      17
    18    3.24987    0.00000    9.42696     3.30000    0.00000   10.00000    0.00100      3       52    54      18
    19    3.30000    0.00000   10.00000     3.60000    0.00000   10.00000    0.00100      1       55    55      19
    20    3.60000    0.00000   10.00000     3.65013    0.00000    9.42696    0.00100      3       56    58      20
    21    3.65013    0.00000    9.42696     3.79901    0.00000    8.87133    0.00100      3       59    61      21
    22    3.79901    0.00000    8.87133     4.04212    0.00000    8.35000    0.00100      3       62    64      22
    23    4.04212    0.00000    8.35000     4.37205    0.00000    7.87880    0.00100      3       65    67      23
    24    4.37205    0.00000    7.87880     4.77880    0.00000    7.47205    0.00100      3       68    70      24
    25    4.77880    0.00000    7.47205     5.25000    0.00000    7.14212    0.00100      3       71    73      25
    26    5.25000    0.00000    7.14212     5.77133    0.00000    6.89901    0.00100      3       74    76      26
    27    5.77133    0.00000    6.89901     6.32696    0.00000    6.75013    0.00100      3       77    79      27
    28    6.32696    0.00000    6.75013     6.90000    0.00000    6.70000    0.00100      3       80    82      28
    29    6.90000    0.00000    6.70000     7.47304    0.00000    6.75013    0.00100      3       83    85      29
    30    7.47304    0.00000    6.75013     8.02867    0.00000    6.89901    0.00100      3       86    88      30
    31    8.02867    0.00000    6.89901     8.55000    0.00000    7.14212    0.00100      3       89    91      31
    32    8.55000    0.00000    7.14212     9.02120    0.00000    7.47205    0.00100      3       92    94      32
    33    9.02120    0.00000    7.47205     9.42795    0.00000    7.87880    0.00100      3       95    97      33
    34    9.42795    0.00000    7.87880     9.75788    0.00000    8.35000    0.00100      3       98   100      34
    35    9.75788    0.00000    8.35000    10.00099    0.00000    8.87133    0.00100      3      101   103      35
    36   10.00099    0.00000    8.87133    10.14987    0.00000    9.42696    0.00100      3      104   106      36
    37   10.14987    0.00000    9.42696    10.20000    0.00000   10.00000    0.00100      3      107   109      37

   TOTAL SEGMENTS USED=  109     NO. SEG. IN A SYMMETRIC CELL=  109     SYMMETRY FLAG=  0


                                 - - - - SEGMENTATION DATA - - - -

                                        COORDINATES IN METERS

                         I+ AND I- INDICATE THE SEGMENTS BEFORE AND AFTER I


  SEG.   COORDINATES OF SEG. CENTER     SEG.     ORIENTATION ANGLES    WIRE    CONNECTION DATA   TAG
  NO.       X         Y         Z       LENGTH     ALPHA     BETA      RADIUS    I-   I    I+    NO.
     1  -3.29164   0.00000   9.90449   0.19174  -85.00004   0.00000   0.00100     0    1    2      1
     2  -3.27493   0.00000   9.71348   0.19174  -85.00004   0.00000   0.00100     1    2    3      1
     3  -3.25822   0.00000   9.52247   0.19174  -85.00004   0.00000   0.00100     2    3    4      1
     4  -3.22505   0.00000   9.33436   0.19174  -74.99999   0.00000   0.00100     3    4    5      2
     5  -3.17543   0.00000   9.14915   0.19174  -74.99999   0.00000   0.00100     4    5    6      2
     6  -3.12580   0.00000   8.96394   0.19174  -74.99999   0.00000   0.00100     5    6    7      2
     7  -3.06047   0.00000   8.78444   0.19174  -64.99998   0.00000   0.00100     6    7    8      3
     8  -2.97944   0.00000   8.61067   0.19174  -64.99998   0.00000   0.00100     7    8    9      3
     9  -2.89840   0.00000   8.43689   0.19174  -64.99998   0.00000   0.00100     8    9   10      3
    10  -2.80289   0.00000   8.27147   0.19174  -55.00001   0.00000   0.00100     9   10   11      4
    11  -2.69292   0.00000   8.11440   0.19174  -55.00001   0.00000   0.00100    10   11   12      4
    12  -2.58294   0.00000   7.95733   0.19174  -55.00001   0.00000   0.00100    11   12   13      4
    13  -2.46016   0.00000   7.81101   0.19174  -44.99997   0.00000   0.00100    12   13   14      5
    14  -2.32457   0.00000   7.67543   0.19174  -44.99997   0.00000   0.00100    13   14   15      5
    15  -2.18899   0.00000   7.53984   0.19174  -44.99997   0.00000   0.00100    14   15   16      5
    16  -2.04267   0.00000   7.41706   0.19174  -35.00000   0.00000   0.00100    15   16   17      6
    17  -1.88560   0.00000   7.30708   0.19174  -35.00000   0.00000   0.00100    16   17   18      6
    18  -1.72853   0.00000   7.19711   0.19174  -35.00000   0.00000   0.00100    17   18   19      6
    19  -1.56311   0.00000   7.10160   0.19174  -24.99998   0.00000   0.00100    18   19   20      7
    20  -1.38933   0.00000   7.02057   0.19174  -24.99998   0.00000   0.00100    19   20   21      7
    21  -1.21555   0.00000   6.93953   0.19174  -24.99998   0.00000   0.00100    20   21   22      7
    22  -1.03606   0.00000   6.87420   0.19174  -15.00002   0.00000   0.00100    21   22   23      8
    23  -0.85085   0.00000   6.82457   0.19174  -15.00002   0.00000   0.00100    22   23   24      8
    24  -0.66564   0.00000   6.77495   0.19174  -15.00002   0.00000   0.00100    23   24   25      8
    25  -0.47753   0.00000   6.74178   0.19174   -5.00000   0.00000   0.00100    24   25   26      9
    26  -0.28652   0.00000   6.72507   0.19174   -5.00000   0.00000   0.00100    25   26   27      9
    27  -0.09551   0.00000   6.70836   0.19174   -5.00000   0.00000   0.00100    26   27   28      9
    28   0.09551   0.00000   6.70836   0.19174    5.00000   0.00000   0.00100    27   28   29     10
    29   0.28652   0.00000   6.72507   0.19174    5.00000   0.00000   0.00100    28   29   30     10
    30   0.47753   0.00000   6.74178   0.19174    5.00000   0.00000   0.00100    29   30   31     10
    31   0.66564   0.00000   6.77495   0.19174   15.00001   0.00000   0.00100    30   31   32     11
    32   0.85085   0.00000   6.82457   0.19174   15.00001   0.00000   0.00100    31   32   33     11
    33   1.03606   0.00000   6.87420   0.19174   15.00001   0.00000   0.00100    32   33   34     11
    34   1.21556   0.00000   6.93953   0.19174   25.00000   0.00000   0.00100    33   34   35     12
    35   1.38933   0.00000   7.02057   0.19174   25.00000   0.00000   0.00100    34   35   36     12
    36   1.56311   0.00000   7.10160   0.19174   25.00000   0.00000   0.00100    35   36   37     12
    37   1.72853   0.00000   7.19711   0.19174   34.99999   0.00000   0.00100    36   37   38     13
    38   1.88560   0.00000   7.30708   0.19174   34.99999   0.00000   0.00100    37   38   39     13
    39   2.04267   0.00000   7.41706   0.19174   34.99999   0.00000   0.00100    38   39   40     13
    40   2.18899   0.00000   7.53984   0.19174   45.00000   0.00000   0.00100    39   40   41     14
    41   2.32457   0.00000   7.67543   0.19174   45.00000   0.00000   0.00100    40   41   42     14
    42   2.46016   0.00000   7.81101   0.19174   45.00000   0.00000   0.00100    41   42   43     14
    43   2.58294   0.00000   7.95733   0.19174   55.00001   0.00000   0.00100    42   43   44     15
    44   2.69292   0.00000   8.11440   0.19174   55.00001   0.00000   0.00100    43   44   45     15
    45   2.80289   0.00000   8.27147   0.19174   55.00001   0.00000   0.00100    44   45   46     15
    46   2.89840   0.00000   8.43689   0.19174   65.00000   0.00000   0.00100    45   46   47     16
    47   2.97943   0.00000   8.61067   0.19174   65.00000   0.00000   0.00100    46   47   48     16
    48   3.06047   0.00000   8.78444   0.19174   65.00000   0.00000   0.00100    47   48   49     16
    49   3.12580   0.00000   8.96394   0.19174   74.99999   0.00000   0.00100    48   49   50     17
    50   3.17543   0.00000   9.14915   0.19174   74.99999   0.00000   0.00100    49   50   51     17
    51   3.22505   0.00000   9.33436   0.19174   74.99999   0.00000   0.00100    50   51   52     17
    52   3.25822   0.00000   9.52247   0.19174   85.00000   0.00000   0.00100    51   52   53     18
    53   3.27493   0.00000   9.71348   0.19174   85.00000   0.00000   0.00100    52   53   54     18
    54   3.29164   0.00000   9.90449   0.19174   85.00000   0.00000   0.00100    53   54   55     18
    55   3.45000   0.00000  10.00000   0.30000    0.00000   0.00000   0.00100    54   55   56     19
    56   3.60836   0.00000   9.90449   0.19174  -85.00000   0.00000   0.00100    55   56   57     20
    57   3.62507   0.00000   9.71348   0.19174  -85.00000   0.00000   0.00100    56   57   58     20
    58   3.64178   0.00000   9.52247   0.19174  -85.00000   0.00000   0.00100    57   58   59     20
    59   3.67495   0.00000   9.33436   0.19174  -74.99999   0.00000   0.00100    58   59   60     21
    60   3.72457   0.00000   9.14915   0.19174  -74.99999   0.00000   0.00100    59   60   61     21
    61   3.77420   0.00000   8.96394   0.19174  -74.99999   0.00000   0.00100    60   61   62     21
    62   3.83953   0.00000   8.78444   0.19174  -65.00000   0.00000   0.00100    61   62   63     22
    63   3.92057   0.00000   8.61067   0.19174  -65.00000   0.00000   0.00100    62   63   64     22
    64   4.00160   0.00000   8.43689   0.19174  -65.00000   0.00000   0.00100    63   64   65     22
    65   4.09711   0.00000   8.27147   0.19174  -55.00001   0.00000   0.00100    64   65   66     23
    66   4.20708   0.00000   8.11440   0.19174  -55.00001   0.00000   0.00100    65   66   67     23
    67   4.31706   0.00000   7.95733   0.19174  -55.00001   0.00000   0.00100    66   67   68     23
    68   4.43984   0.00000   7.81101   0.19174  -45.00000   0.00000   0.00100    67   68   69     24
    69   4.57543   0.00000   7.67543   0.19174  -45.00000   0.00000   0.00100    68   69   70     24
    70   4.71101   0.00000   7.53984   0.19174  -45.00000   0.00000   0.00100    69   70   71     24
    71   4.85733   0.00000   7.41706   0.19174  -34.99999   0.00000   0.00100    70   71   72     25
    72   5.01440   0.00000   7.30708   0.19174  -34.99999   0.00000   0.00100    71   72   73     25
    73   5.17147   0.00000   7.19711   0.19174  -34.99999   0.00000   0.00100    72   73   74     25
    74   5.33689   0.00000   7.10160   0.19174  -25.00000   0.00000   0.00100    73   74   75     26
    75   5.51067   0.00000   7.02057   0.19174  -25.00000   0.00000   0.00100    74   75   76     26
    76   5.68444   0.00000   6.93953   0.19174  -25.00000   0.00000   0.00100    75   76   77     26
    77   5.86394   0.00000   6.87420   0.19174  -15.00001   0.00000   0.00100    76   77   78     27
    78   6.04915   0.00000   6.82457   0.19174  -15.00001   0.00000   0.00100    77   78   79     27
    79   6.23436   0.00000   6.77495   0.19174  -15.00001   0.00000   0.00100    78   79   80     27
    80   6.42247   0.00000   6.74178   0.19174   -5.00000   0.00000   0.00100    79   80   81     28
    81   6.61348   0.00000   6.72507   0.19174   -5.00000   0.00000   0.00100    80   81   82     28
    82   6.80449   0.00000   6.70836   0.19174   -5.00000   0.00000   0.00100    81   82   83     28
    83   6.99551   0.00000   6.70836   0.19174    5.00000   0.00000   0.00100    82   83   84     29
    84   7.18652   0.00000   6.72507   0.19174    5.00000   0.00000   0.00100    83   84   85     29
    85   7.37753   0.00000   6.74178   0.19174    5.00000   0.00000   0.00100    84   85   86     29
    86   7.56564   0.00000   6.77495   0.19174   15.00001   0.00000   0.00100    85   86   87     30
    87   7.75085   0.00000   6.82457   0.19174   15.00001   0.00000   0.00100    86   87   88     30
    88   7.93606   0.00000   6.87420   0.19174   15.00001   0.00000   0.00100    87   88   89     30
    89   8.11556   0.00000   6.93953   0.19174   25.00000   0.00000   0.00100    88   89   90     31
    90   8.28933   0.00000   7.02057   0.19174   25.00000   0.00000   0.00100    89   90   91     31
    91   8.46311   0.00000   7.10160   0.19174   25.00000   0.00000   0.00100    90   91   92     31
    92   8.62853   0.00000   7.19711   0.19174   34.99999   0.00000   0.00100    91   92   93     32
    93   8.78560   0.00000   7.30708   0.19174   34.99999   0.00000   0.00100    92   93   94     32
    94   8.94267   0.00000   7.41706   0.19174   34.99999   0.00000   0.00100    93   94   95     32
    95   9.08899   0.00000   7.53984   0.19174   45.00000   0.00000   0.00100    94   95   96     33
    96   9.22457   0.00000   7.67543   0.19174   45.00000   0.00000   0.00100    95   96   97     33
    97   9.36016   0.00000   7.81101   0.19174   45.00000   0.00000   0.00100    96   97   98     33
    98   9.48294   0.00000   7.95733   0.19174   55.00001   0.00000   0.00100    97   98   99     34
    99   9.59292   0.00000   8.11440   0.19174   55.00001   0.00000   0.00100    98   99  100     34
   100   9.70289   0.00000   8.27147   0.19174   55.00001   0.00000   0.00100    99  100  101     34
   101   9.79840   0.00000   8.43689   0.19174   64.99996   0.00000   0.00100   100  101  102     35
   102   9.87943   0.00000   8.61067   0.19174   64.99996   0.00000   0.00100   101  102  103     35
   103   9.96047   0.00000   8.78444   0.19174   64.99996   0.00000   0.00100   102  103  104     35
   104  10.02580   0.00000   8.96394   0.19174   74.99999   0.00000   0.00100   103  104  105     36
   105  10.07543   0.00000   9.14915   0.19174   74.99999   0.00000   0.00100   104  105  106     36
   106  10.12505   0.00000   9.33436   0.19174   74.99999   0.00000   0.00100   105  106  107     36
   107  10.15822   0.00000   9.52247   0.19174   85.00004   0.00000   0.00100   106  107  108     37
   108  10.17493   0.00000   9.71348   0.19174   85.00004   0.00000   0.00100   107  108  109     37
   109  10.19164   0.00000   9.90449   0.19174   85.00004   0.00000   0.00100   108  109    0     37






 ***** DATA CARD NO.  1   GN   0     0     0     0  4.00000E+00  3.00000E-03  0.00000E+00  0.00000E+00  0.00000E+00  0.00000E+00
 ***** DATA CARD NO.  2   EK   0     0     0     0  0.00000E+00  0.00000E+00  0.00000E+00  0.00000E+00  0.00000E+00  0.00000E+00
 ***** DATA CARD NO.  3   EX   0    19     1     0  1.00000E+00  0.00000E+00  0.00000E+00  0.00000E+00  0.00000E+00  0.00000E+00
 ***** DATA CARD NO.  4   FR   0     1     0     0  7.20000E+00  0.00000E+00  0.00000E+00  0.00000E+00  0.00000E+00  0.00000E+00
 ***** DATA CARD NO.  5   XQ   0     0     0     0  0.00000E+00  0.00000E+00  0.00000E+00  0.00000E+00  0.00000E+00  0.00000E+00




                                 - - - - - - FREQUENCY - - - - - -

                                    FREQUENCY= 7.2000E+00 MHZ
                                    WAVELENGTH= 4.1638E+01 METERS




                    APPROXIMATE INTEGRATION EMPLOYED FOR SEGMENTS MORE THAN   1.000 WAVELENGTHS APART

                    THE EXTENDED THIN WIRE KERNEL WILL BE USED
WARNING- SEGMENT[0] LENGTH TOO SMALL (0.004605)
WARNING- SEGMENT[1] LENGTH TOO SMALL (0.004605)
WARNING- SEGMENT[2] LENGTH TOO SMALL (0.004605)
WARNING- SEGMENT[3] LENGTH TOO SMALL (0.004605)
WARNING- SEGMENT[4] LENGTH TOO SMALL (0.004605)
WARNING- SEGMENT[5] LENGTH TOO SMALL (0.004605)
WARNING- SEGMENT[6] LENGTH TOO SMALL (0.004605)
WARNING- SEGMENT[7] LENGTH TOO SMALL (0.004605)
WARNING- SEGMENT[8] LENGTH TOO SMALL (0.004605)
WARNING- SEGMENT[9] LENGTH TOO SMALL (0.004605)
WARNING- SEGMENT[10] LENGTH TOO SMALL (0.004605)
WARNING- SEGMENT[11] LENGTH TOO SMALL (0.004605)
WARNING- SEGMENT[12] LENGTH TOO SMALL (0.004605)
WARNING- SEGMENT[13] LENGTH TOO SMALL (0.004605)
WARNING- SEGMENT[14] LENGTH TOO SMALL (0.004605)
WARNING- SEGMENT[15] LENGTH TOO SMALL (0.004605)
WARNING- SEGMENT[16] LENGTH TOO SMALL (0.004605)
WARNING- SEGMENT[17] LENGTH TOO SMALL (0.004605)
WARNING- SEGMENT[18] LENGTH TOO SMALL (0.004605)
WARNING- SEGMENT[19] LENGTH TOO SMALL (0.004605)
WARNING- SEGMENT[20] LENGTH TOO SMALL (0.004605)
WARNING- SEGMENT[21] LENGTH TOO SMALL (0.004605)
WARNING- SEGMENT[22] LENGTH TOO SMALL (0.004605)
WARNING- SEGMENT[23] LENGTH TOO SMALL (0.004605)
WARNING- SEGMENT[24] LENGTH TOO SMALL (0.004605)
WARNING- SEGMENT[25] LENGTH TOO SMALL (0.004605)
WARNING- SEGMENT[26] LENGTH TOO SMALL (0.004605)
WARNING- SEGMENT[27] LENGTH TOO SMALL (0.004605)
WARNING- SEGMENT[28] LENGTH TOO SMALL (0.004605)
WARNING- SEGMENT[29] LENGTH TOO SMALL (0.004605)
WARNING- SEGMENT[30] LENGTH TOO SMALL (0.004605)
WARNING- SEGMENT[31] LENGTH TOO SMALL (0.004605)
WARNING- SEGMENT[32] LENGTH TOO SMALL (0.004605)
WARNING- SEGMENT[33] LENGTH TOO SMALL (0.004605)
WARNING- SEGMENT[34] LENGTH TOO SMALL (0.004605)
WARNING- SEGMENT[35] LENGTH TOO SMALL (0.004605)
WARNING- SEGMENT[36] LENGTH TOO SMALL (0.004605)
WARNING- SEGMENT[37] LENGTH TOO SMALL (0.004605)
WARNING- SEGMENT[38] LENGTH TOO SMALL (0.004605)
WARNING- SEGMENT[39] LENGTH TOO SMALL (0.004605)
WARNING- SEGMENT[40] LENGTH TOO SMALL (0.004605)
WARNING- SEGMENT[41] LENGTH TOO SMALL (0.004605)
WARNING- SEGMENT[42] LENGTH TOO SMALL (0.004605)
WARNING- SEGMENT[43] LENGTH TOO SMALL (0.004605)
WARNING- SEGMENT[44] LENGTH TOO SMALL (0.004605)
WARNING- SEGMENT[45] LENGTH TOO SMALL (0.004605)
WARNING- SEGMENT[46] LENGTH TOO SMALL (0.004605)
WARNING- SEGMENT[47] LENGTH TOO SMALL (0.004605)
WARNING- SEGMENT[48] LENGTH TOO SMALL (0.004605)
WARNING- SEGMENT[49] LENGTH TOO SMALL (0.004605)
WARNING- SEGMENT[50] LENGTH TOO SMALL (0.004605)
WARNING- SEGMENT[51] LENGTH TOO SMALL (0.004605)
WARNING- SEGMENT[52] LENGTH TOO SMALL (0.004605)
WARNING- SEGMENT[53] LENGTH TOO SMALL (0.004605)
WARNING- SEGMENT[54] LENGTH TOO SMALL (0.007205)
WARNING- SEGMENT[55] LENGTH TOO SMALL (0.004605)
WARNING- SEGMENT[56] LENGTH TOO SMALL (0.004605)
WARNING- SEGMENT[57] LENGTH TOO SMALL (0.004605)
WARNING- SEGMENT[58] LENGTH TOO SMALL (0.004605)
WARNING- SEGMENT[59] LENGTH TOO SMALL (0.004605)
WARNING- SEGMENT[60] LENGTH TOO SMALL (0.004605)
WARNING- SEGMENT[61] LENGTH TOO SMALL (0.004605)
WARNING- SEGMENT[62] LENGTH TOO SMALL (0.004605)
WARNING- SEGMENT[63] LENGTH TOO SMALL (0.004605)
WARNING- SEGMENT[64] LENGTH TOO SMALL (0.004605)
WARNING- SEGMENT[65] LENGTH TOO SMALL (0.004605)
WARNING- SEGMENT[66] LENGTH TOO SMALL (0.004605)
WARNING- SEGMENT[67] LENGTH TOO SMALL (0.004605)
WARNING- SEGMENT[68] LENGTH TOO SMALL (0.004605)
WARNING- SEGMENT[69] LENGTH TOO SMALL (0.004605)
WARNING- SEGMENT[70] LENGTH TOO SMALL (0.004605)
WARNING- SEGMENT[71] LENGTH TOO SMALL (0.004605)
WARNING- SEGMENT[72] LENGTH TOO SMALL (0.004605)
WARNING- SEGMENT[73] LENGTH TOO SMALL (0.004605)
WARNING- SEGMENT[74] LENGTH TOO SMALL (0.004605)
WARNING- SEGMENT[75] LENGTH TOO SMALL (0.004605)
WARNING- SEGMENT[76] LENGTH TOO SMALL (0.004605)
WARNING- SEGMENT[77] LENGTH TOO SMALL (0.004605)
WARNING- SEGMENT[78] LENGTH TOO SMALL (0.004605)
WARNING- SEGMENT[79] LENGTH TOO SMALL (0.004605)
WARNING- SEGMENT[80] LENGTH TOO SMALL (0.004605)
WARNING- SEGMENT[81] LENGTH TOO SMALL (0.004605)
WARNING- SEGMENT[82] LENGTH TOO SMALL (0.004605)
WARNING- SEGMENT[83] LENGTH TOO SMALL (0.004605)
WARNING- SEGMENT[84] LENGTH TOO SMALL (0.004605)
WARNING- SEGMENT[85] LENGTH TOO SMALL (0.004605)
WARNING- SEGMENT[86] LENGTH TOO SMALL (0.004605)
WARNING- SEGMENT[87] LENGTH TOO SMALL (0.004605)
WARNING- SEGMENT[88] LENGTH TOO SMALL (0.004605)
WARNING- SEGMENT[89] LENGTH TOO SMALL (0.004605)
WARNING- SEGMENT[90] LENGTH TOO SMALL (0.004605)
WARNING- SEGMENT[91] LENGTH TOO SMALL (0.004605)
WARNING- SEGMENT[92] LENGTH TOO SMALL (0.004605)
WARNING- SEGMENT[93] LENGTH TOO SMALL (0.004605)
WARNING- SEGMENT[94] LENGTH TOO SMALL (0.004605)
WARNING- SEGMENT[95] LENGTH TOO SMALL (0.004605)
WARNING- SEGMENT[96] LENGTH TOO SMALL (0.004605)
WARNING- SEGMENT[97] LENGTH TOO SMALL (0.004605)
WARNING- SEGMENT[98] LENGTH TOO SMALL (0.004605)
WARNING- SEGMENT[99] LENGTH TOO SMALL (0.004605)
WARNING- SEGMENT[100] LENGTH TOO SMALL (0.004605)
WARNING- SEGMENT[101] LENGTH TOO SMALL (0.004605)
WARNING- SEGMENT[102] LENGTH TOO SMALL (0.004605)
WARNING- SEGMENT[103] LENGTH TOO SMALL (0.004605)
WARNING- SEGMENT[104] LENGTH TOO SMALL (0.004605)
WARNING- SEGMENT[105] LENGTH TOO SMALL (0.004605)
WARNING- SEGMENT[106] LENGTH TOO SMALL (0.004605)
WARNING- SEGMENT[107] LENGTH TOO SMALL (0.004605)
WARNING- SEGMENT[108] LENGTH TOO SMALL (0.004605)



                               - - - STRUCTURE IMPEDANCE LOADING - - -

                                   THIS STRUCTURE IS NOT LOADED



                                  - - - ANTENNA ENVIRONMENT - - -

                                        FINITE GROUND.  REFLECTION COEFFICIENT APPROXIMATION
                                        RELATIVE DIELECTRIC CONST.=  4.000
                                        CONDUCTIVITY= 3.000E-03 MHOS/METER
                                        COMPLEX DIELECTRIC CONSTANT= 4.00000E+00-7.48979E+00



                                - - - MATRIX TIMING - - -

                        FILL=    219 msec  FACTOR: 31 msec




                                          - - - ANTENNA INPUT PARAMETERS - - -

   TAG   SEG.    VOLTAGE (VOLTS)         CURRENT (AMPS)         IMPEDANCE (OHMS)        ADMITTANCE (MHOS)      POWER
   NO.   NO.    REAL        IMAG.       REAL        IMAG.       REAL        IMAG.       REAL        IMAG.     (WATTS)
    19    55 1.00000E+00 0.00000E+00 1.93433E-02 1.20563E-02 3.72332E+01-2.32068E+01 1.93433E-02 1.20563E-02 9.67163E-03


                             - - - CURRENTS AND LOCATION - - -

                                 DISTANCES IN WAVELENGTHS


  SEG.  TAG    COORD. OF SEG. CENTER     SEG.            - - - CURRENT (AMPS) - - -
  NO.   NO.     X        Y        Z      LENGTH     REAL        IMAG.       MAG.        PHASE
     1    1  -0.0791   0.0000   0.2379  0.00460   3.8764E-04  2.2173E-04  4.4657E-04   29.770
     2    1  -0.0787   0.0000   0.2333  0.00460   1.0628E-03  6.0797E-04  1.2244E-03   29.771
     3    1  -0.0783   0.0000   0.2287  0.00460   1.6932E-03  9.6856E-04  1.9506E-03   29.771
     4    2  -0.0775   0.0000   0.2242  0.00460   2.3044E-03  1.3182E-03  2.6548E-03   29.772
     5    2  -0.0763   0.0000   0.2197  0.00460   2.9023E-03  1.6605E-03  3.3437E-03   29.775
     6    2  -0.0751   0.0000   0.2153  0.00460   3.4897E-03  1.9970E-03  4.0207E-03   29.780
     7    3  -0.0735   0.0000   0.2110  0.00460   4.0682E-03  2.3286E-03  4.6875E-03   29.786
     8    3  -0.0716   0.0000   0.2068  0.00460   4.6383E-03  2.6558E-03  5.3448E-03   29.795
     9    3  -0.0696   0.0000   0.2026  0.00460   5.2004E-03  2.9788E-03  5.9931E-03   29.805
    10    4  -0.0673   0.0000   0.1987  0.00460   5.7548E-03  3.2979E-03  6.6328E-03   29.816
    11    4  -0.0647   0.0000   0.1949  0.00460   6.3014E-03  3.6130E-03  7.2637E-03   29.829
    12    4  -0.0620   0.0000   0.1911  0.00460   6.8400E-03  3.9242E-03  7.8858E-03   29.844
    13    5  -0.0591   0.0000   0.1876  0.00460   7.3708E-03  4.2315E-03  8.4991E-03   29.860
    14    5  -0.0558   0.0000   0.1843  0.00460   7.8933E-03  4.5347E-03  9.1032E-03   29.878
    15    5  -0.0526   0.0000   0.1811  0.00460   8.4073E-03  4.8338E-03  9.6978E-03   29.897
    16    6  -0.0491   0.0000   0.1781  0.00460   8.9127E-03  5.1288E-03  1.0283E-02   29.918
    17    6  -0.0453   0.0000   0.1755  0.00460   9.4089E-03  5.4193E-03  1.0858E-02   29.941
    18    6  -0.0415   0.0000   0.1728  0.00460   9.8959E-03  5.7054E-03  1.1423E-02   29.965
    19    7  -0.0375   0.0000   0.1706  0.00460   1.0373E-02  5.9869E-03  1.1977E-02   29.991
    20    7  -0.0334   0.0000   0.1686  0.00460   1.0841E-02  6.2636E-03  1.2520E-02   30.018
    21    7  -0.0292   0.0000   0.1667  0.00460   1.1298E-02  6.5354E-03  1.3052E-02   30.047
    22    8  -0.0249   0.0000   0.1651  0.00460   1.1745E-02  6.8022E-03  1.3572E-02   30.078
    23    8  -0.0204   0.0000   0.1639  0.00460   1.2181E-02  7.0637E-03  1.4081E-02   30.110
    24    8  -0.0160   0.0000   0.1627  0.00460   1.2605E-02  7.3199E-03  1.4577E-02   30.144
    25    9  -0.0115   0.0000   0.1619  0.00460   1.3019E-02  7.5706E-03  1.5060E-02   30.179
    26    9  -0.0069   0.0000   0.1615  0.00460   1.3420E-02  7.8157E-03  1.5530E-02   30.215
    27    9  -0.0023   0.0000   0.1611  0.00460   1.3810E-02  8.0549E-03  1.5988E-02   30.253
    28   10   0.0023   0.0000   0.1611  0.00460   1.4188E-02  8.2883E-03  1.6431E-02   30.293
    29   10   0.0069   0.0000   0.1615  0.00460   1.4553E-02  8.5156E-03  1.6861E-02   30.334
    30   10   0.0115   0.0000   0.1619  0.00460   1.4905E-02  8.7366E-03  1.7277E-02   30.377
    31   11   0.0160   0.0000   0.1627  0.00460   1.5245E-02  8.9515E-03  1.7679E-02   30.421
    32   11   0.0204   0.0000   0.1639  0.00460   1.5571E-02  9.1598E-03  1.8066E-02   30.466
    33   11   0.0249   0.0000   0.1651  0.00460   1.5884E-02  9.3616E-03  1.8438E-02   30.513
    34   12   0.0292   0.0000   0.1667  0.00460   1.6184E-02  9.5568E-03  1.8795E-02   30.562
    35   12   0.0334   0.0000   0.1686  0.00460   1.6471E-02  9.7452E-03  1.9138E-02   30.611
    36   12   0.0375   0.0000   0.1706  0.00460   1.6744E-02  9.9269E-03  1.9465E-02   30.662
    37   13   0.0415   0.0000   0.1728  0.00460   1.7003E-02  1.0102E-02  1.9778E-02   30.715
    38   13   0.0453   0.0000   0.1755  0.00460   1.7249E-02  1.0270E-02  2.0074E-02   30.769
    39   13   0.0491   0.0000   0.1781  0.00460   1.7481E-02  1.0431E-02  2.0356E-02   30.824
    40   14   0.0526   0.0000   0.1811  0.00460   1.7699E-02  1.0585E-02  2.0622E-02   30.881
    41   14   0.0558   0.0000   0.1843  0.00460   1.7903E-02  1.0732E-02  2.0873E-02   30.940
    42   14   0.0591   0.0000   0.1876  0.00460   1.8094E-02  1.0872E-02  2.1109E-02   30.999
    43   15   0.0620   0.0000   0.1911  0.00460   1.8272E-02  1.1005E-02  2.1330E-02   31.061
    44   15   0.0647   0.0000   0.1949  0.00460   1.8435E-02  1.1131E-02  2.1535E-02   31.123
    45   15   0.0673   0.0000   0.1987  0.00460   1.8586E-02  1.1251E-02  2.1726E-02   31.188
    46   16   0.0696   0.0000   0.2026  0.00460   1.8723E-02  1.1363E-02  2.1901E-02   31.254
    47   16   0.0716   0.0000   0.2068  0.00460   1.8847E-02  1.1469E-02  2.2062E-02   31.322
    48   16   0.0735   0.0000   0.2110  0.00460   1.8957E-02  1.1568E-02  2.2208E-02   31.392
    49   17   0.0751   0.0000   0.2153  0.00460   1.9055E-02  1.1660E-02  2.2339E-02   31.464
    50   17   0.0763   0.0000   0.2197  0.00460   1.9138E-02  1.1745E-02  2.2455E-02   31.538
    51   17   0.0775   0.0000   0.2242  0.00460   1.9208E-02  1.1824E-02  2.2556E-02   31.614
    52   18   0.0783   0.0000   0.2287  0.00460   1.9265E-02  1.1895E-02  2.2641E-02   31.693
    53   18   0.0787   0.0000   0.2333  0.00460   1.9306E-02  1.1958E-02  2.2709E-02   31.774
    54   18   0.0791   0.0000   0.2379  0.00460   1.9332E-02  1.2013E-02  2.2760E-02   31.857
    55   19   0.0829   0.0000   0.2402  0.00720   1.9343E-02  1.2056E-02  2.2793E-02   31.935
    56   20   0.0867   0.0000   0.2379  0.00460   1.9332E-02  1.2013E-02  2.2760E-02   31.857
    57   20   0.0871   0.0000   0.2333  0.00460   1.9306E-02  1.1958E-02  2.2709E-02   31.774
    58   20   0.0875   0.0000   0.2287  0.00460   1.9265E-02  1.1895E-02  2.2641E-02   31.693
    59   21   0.0883   0.0000   0.2242  0.00460   1.9208E-02  1.1824E-02  2.2556E-02   31.614
    60   21   0.0895   0.0000   0.2197  0.00460   1.9138E-02  1.1745E-02  2.2455E-02   31.538
    61   21   0.0906   0.0000   0.2153  0.00460   1.9055E-02  1.1660E-02  2.2339E-02   31.464
    62   22   0.0922   0.0000   0.2110  0.00460   1.8957E-02  1.1568E-02  2.2208E-02   31.392
    63   22   0.0942   0.0000   0.2068  0.00460   1.8847E-02  1.1469E-02  2.2062E-02   31.322
    64   22   0.0961   0.0000   0.2026  0.00460   1.8723E-02  1.1363E-02  2.1901E-02   31.254
    65   23   0.0984   0.0000   0.1987  0.00460   1.8586E-02  1.1251E-02  2.1726E-02   31.188
    66   23   0.1010   0.0000   0.1949  0.00460   1.8435E-02  1.1131E-02  2.1535E-02   31.123
    67   23   0.1037   0.0000   0.1911  0.00460   1.8272E-02  1.1005E-02  2.1330E-02   31.061
    68   24   0.1066   0.0000   0.1876  0.00460   1.8094E-02  1.0872E-02  2.1109E-02   30.999
    69   24   0.1099   0.0000   0.1843  0.00460   1.7903E-02  1.0732E-02  2.0873E-02   30.940
    70   24   0.1131   0.0000   0.1811  0.00460   1.7699E-02  1.0585E-02  2.0622E-02   30.881
    71   25   0.1167   0.0000   0.1781  0.00460   1.7481E-02  1.0431E-02  2.0356E-02   30.824
    72   25   0.1204   0.0000   0.1755  0.00460   1.7249E-02  1.0270E-02  2.0074E-02   30.769
    73   25   0.1242   0.0000   0.1728  0.00460   1.7003E-02  1.0102E-02  1.9778E-02   30.715
    74   26   0.1282   0.0000   0.1706  0.00460   1.6744E-02  9.9269E-03  1.9465E-02   30.662
    75   26   0.1323   0.0000   0.1686  0.00460   1.6471E-02  9.7452E-03  1.9138E-02   30.611
    76   26   0.1365   0.0000   0.1667  0.00460   1.6184E-02  9.5568E-03  1.8795E-02   30.562
    77   27   0.1408   0.0000   0.1651  0.00460   1.5884E-02  9.3616E-03  1.8438E-02   30.513
    78   27   0.1453   0.0000   0.1639  0.00460   1.5571E-02  9.1598E-03  1.8066E-02   30.466
    79   27   0.1497   0.0000   0.1627  0.00460   1.5245E-02  8.9515E-03  1.7679E-02   30.421
    80   28   0.1542   0.0000   0.1619  0.00460   1.4905E-02  8.7366E-03  1.7277E-02   30.377
    81   28   0.1588   0.0000   0.1615  0.00460   1.4553E-02  8.5156E-03  1.6861E-02   30.334
    82   28   0.1634   0.0000   0.1611  0.00460   1.4188E-02  8.2883E-03  1.6431E-02   30.293
    83   29   0.1680   0.0000   0.1611  0.00460   1.3810E-02  8.0549E-03  1.5988E-02   30.253
    84   29   0.1726   0.0000   0.1615  0.00460   1.3420E-02  7.8157E-03  1.5530E-02   30.215
    85   29   0.1772   0.0000   0.1619  0.00460   1.3019E-02  7.5706E-03  1.5060E-02   30.179
    86   30   0.1817   0.0000   0.1627  0.00460   1.2605E-02  7.3199E-03  1.4577E-02   30.144
    87   30   0.1861   0.0000   0.1639  0.00460   1.2181E-02  7.0637E-03  1.4081E-02   30.110
    88   30   0.1906   0.0000   0.1651  0.00460   1.1745E-02  6.8022E-03  1.3572E-02   30.078
    89   31   0.1949   0.0000   0.1667  0.00460   1.1298E-02  6.5354E-03  1.3052E-02   30.047
    90   31   0.1991   0.0000   0.1686  0.00460   1.0841E-02  6.2636E-03  1.2520E-02   30.018
    91   31   0.2033   0.0000   0.1706  0.00460   1.0373E-02  5.9869E-03  1.1977E-02   29.991
    92   32   0.2072   0.0000   0.1728  0.00460   9.8959E-03  5.7054E-03  1.1423E-02   29.965
    93   32   0.2110   0.0000   0.1755  0.00460   9.4089E-03  5.4193E-03  1.0858E-02   29.941
    94   32   0.2148   0.0000   0.1781  0.00460   8.9127E-03  5.1288E-03  1.0283E-02   29.918
    95   33   0.2183   0.0000   0.1811  0.00460   8.4073E-03  4.8338E-03  9.6978E-03   29.897
    96   33   0.2215   0.0000   0.1843  0.00460   7.8933E-03  4.5347E-03  9.1032E-03   29.878
    97   33   0.2248   0.0000   0.1876  0.00460   7.3708E-03  4.2315E-03  8.4991E-03   29.860
    98   34   0.2277   0.0000   0.1911  0.00460   6.8400E-03  3.9242E-03  7.8858E-03   29.844
    99   34   0.2304   0.0000   0.1949  0.00460   6.3014E-03  3.6130E-03  7.2637E-03   29.829
   100   34   0.2330   0.0000   0.1987  0.00460   5.7548E-03  3.2979E-03  6.6328E-03   29.816
   101   35   0.2353   0.0000   0.2026  0.00460   5.2004E-03  2.9788E-03  5.9931E-03   29.805
   102   35   0.2373   0.0000   0.2068  0.00460   4.6383E-03  2.6558E-03  5.3448E-03   29.795
   103   35   0.2392   0.0000   0.2110  0.00460   4.0682E-03  2.3286E-03  4.6875E-03   29.786
   104   36   0.2408   0.0000   0.2153  0.00460   3.4897E-03  1.9970E-03  4.0207E-03   29.780
   105   36   0.2420   0.0000   0.2197  0.00460   2.9023E-03  1.6605E-03  3.3437E-03   29.775
   106   36   0.2432   0.0000   0.2242  0.00460   2.3044E-03  1.3182E-03  2.6548E-03   29.772
   107   37   0.2440   0.0000   0.2287  0.00460   1.6932E-03  9.6856E-04  1.9506E-03   29.771
   108   37   0.2444   0.0000   0.2333  0.00460   1.0628E-03  6.0797E-04  1.2244E-03   29.771
   109   37   0.2448   0.0000   0.2379  0.00460   3.8764E-04  2.2173E-04  4.4657E-04   29.770



                                        - - - POWER BUDGET - - -

                                           INPUT POWER   = 9.6716E-03 WATTS
                                           RADIATED POWER= 9.6716E-03 WATTS
                                           STRUCTURE LOSS= 0.0000E+00 WATTS
                                           NETWORK LOSS  = 0.0000E+00 WATTS
                                           EFFICIENCY    = 100.00 PERCENT








 ***** DATA CARD NO.  6   FR   0    50     0     0  1.00000E+00  1.00000E+00  0.00000E+00  0.00000E+00  0.00000E+00  0.00000E+00
 ***** DATA CARD NO.  7   RP   0    37     1  1000 -9.00000E+01  0.00000E+00  5.00000E+00  0.00000E+00  0.00000E+00  0.00000E+00




                                 - - - - - - FREQUENCY - - - - - -

                                    FREQUENCY= 1.0000E+00 MHZ
                                    WAVELENGTH= 2.9980E+02 METERS




                    APPROXIMATE INTEGRATION EMPLOYED FOR SEGMENTS MORE THAN   1.000 WAVELENGTHS APART

                    THE EXTENDED THIN WIRE KERNEL WILL BE USED
WARNING- SEGMENT[0] LENGTH TOO SMALL (0.000640)
WARNING- SEGMENT[1] LENGTH TOO SMALL (0.000640)
WARNING- SEGMENT[2] LENGTH TOO SMALL (0.000640)
WARNING- SEGMENT[3] LENGTH TOO SMALL (0.000640)
WARNING- SEGMENT[4] LENGTH TOO SMALL (0.000640)
WARNING- SEGMENT[5] LENGTH TOO SMALL (0.000640)
WARNING- SEGMENT[6] LENGTH TOO SMALL (0.000640)
WARNING- SEGMENT[7] LENGTH TOO SMALL (0.000640)
WARNING- SEGMENT[8] LENGTH TOO SMALL (0.000640)
WARNING- SEGMENT[9] LENGTH TOO SMALL (0.000640)
WARNING- SEGMENT[10] LENGTH TOO SMALL (0.000640)
WARNING- SEGMENT[11] LENGTH TOO SMALL (0.000640)
WARNING- SEGMENT[12] LENGTH TOO SMALL (0.000640)
WARNING- SEGMENT[13] LENGTH TOO SMALL (0.000640)
WARNING- SEGMENT[14] LENGTH TOO SMALL (0.000640)
WARNING- SEGMENT[15] LENGTH TOO SMALL (0.000640)
WARNING- SEGMENT[16] LENGTH TOO SMALL (0.000640)
WARNING- SEGMENT[17] LENGTH TOO SMALL (0.000640)
WARNING- SEGMENT[18] LENGTH TOO SMALL (0.000640)
WARNING- SEGMENT[19] LENGTH TOO SMALL (0.000640)
WARNING- SEGMENT[20] LENGTH TOO SMALL (0.000640)
WARNING- SEGMENT[21] LENGTH TOO SMALL (0.000640)
WARNING- SEGMENT[22] LENGTH TOO SMALL (0.000640)
WARNING- SEGMENT[23] LENGTH TOO SMALL (0.000640)
WARNING- SEGMENT[24] LENGTH TOO SMALL (0.000640)
WARNING- SEGMENT[25] LENGTH TOO SMALL (0.000640)
WARNING- SEGMENT[26] LENGTH TOO SMALL (0.000640)
WARNING- SEGMENT[27] LENGTH TOO SMALL (0.000640)
WARNING- SEGMENT[28] LENGTH TOO SMALL (0.000640)
WARNING- SEGMENT[29] LENGTH TOO SMALL (0.000640)
WARNING- SEGMENT[30] LENGTH TOO SMALL (0.000640)
WARNING- SEGMENT[31] LENGTH TOO SMALL (0.000640)
WARNING- SEGMENT[32] LENGTH TOO SMALL (0.000640)
WARNING- SEGMENT[33] LENGTH TOO SMALL (0.000640)
WARNING- SEGMENT[34] LENGTH TOO SMALL (0.000640)
WARNING- SEGMENT[35] LENGTH TOO SMALL (0.000640)
WARNING- SEGMENT[36] LENGTH TOO SMALL (0.000640)
WARNING- SEGMENT[37] LENGTH TOO SMALL (0.000640)
WARNING- SEGMENT[38] LENGTH TOO SMALL (0.000640)
WARNING- SEGMENT[39] LENGTH TOO SMALL (0.000640)
WARNING- SEGMENT[40] LENGTH TOO SMALL (0.000640)
WARNING- SEGMENT[41] LENGTH TOO SMALL (0.000640)
WARNING- SEGMENT[42] LENGTH TOO SMALL (0.000640)
WARNING- SEGMENT[43] LENGTH TOO SMALL (0.000640)
WARNING- SEGMENT[44] LENGTH TOO SMALL (0.000640)
WARNING- SEGMENT[45] LENGTH TOO SMALL (0.000640)
WARNING- SEGMENT[46] LENGTH TOO SMALL (0.000640)
WARNING- SEGMENT[47] LENGTH TOO SMALL (0.000640)
WARNING- SEGMENT[48] LENGTH TOO SMALL (0.000640)
WARNING- SEGMENT[49] LENGTH TOO SMALL (0.000640)
WARNING- SEGMENT[50] LENGTH TOO SMALL (0.000640)
WARNING- SEGMENT[51] LENGTH TOO SMALL (0.000640)
WARNING- SEGMENT[52] LENGTH TOO SMALL (0.000640)
WARNING- SEGMENT[53] LENGTH TOO SMALL (0.000640)
WARNING- SEGMENT[54] LENGTH TOO SMALL (0.001001)
WARNING- SEGMENT[55] LENGTH TOO SMALL (0.000640)
WARNING- SEGMENT[56] LENGTH TOO SMALL (0.000640)
WARNING- SEGMENT[57] LENGTH TOO SMALL (0.000640)
WARNING- SEGMENT[58] LENGTH TOO SMALL (0.000640)
WARNING- SEGMENT[59] LENGTH TOO SMALL (0.000640)
WARNING- SEGMENT[60] LENGTH TOO SMALL (0.000640)
WARNING- SEGMENT[61] LENGTH TOO SMALL (0.000640)
WARNING- SEGMENT[62] LENGTH TOO SMALL (0.000640)
WARNING- SEGMENT[63] LENGTH TOO SMALL (0.000640)
WARNING- SEGMENT[64] LENGTH TOO SMALL (0.000640)
WARNING- SEGMENT[65] LENGTH TOO SMALL (0.000640)
WARNING- SEGMENT[66] LENGTH TOO SMALL (0.000640)
WARNING- SEGMENT[67] LENGTH TOO SMALL (0.000640)
WARNING- SEGMENT[68] LENGTH TOO SMALL (0.000640)
WARNING- SEGMENT[69] LENGTH TOO SMALL (0.000640)
WARNING- SEGMENT[70] LENGTH TOO SMALL (0.000640)
WARNING- SEGMENT[71] LENGTH TOO SMALL (0.000640)
WARNING- SEGMENT[72] LENGTH TOO SMALL (0.000640)
WARNING- SEGMENT[73] LENGTH TOO SMALL (0.000640)
WARNING- SEGMENT[74] LENGTH TOO SMALL (0.000640)
WARNING- SEGMENT[75] LENGTH TOO SMALL (0.000640)
WARNING- SEGMENT[76] LENGTH TOO SMALL (0.000640)
WARNING- SEGMENT[77] LENGTH TOO SMALL (0.000640)
WARNING- SEGMENT[78] LENGTH TOO SMALL (0.000640)
WARNING- SEGMENT[79] LENGTH TOO SMALL (0.000640)
WARNING- SEGMENT[80] LENGTH TOO SMALL (0.000640)
WARNING- SEGMENT[81] LENGTH TOO SMALL (0.000640)
WARNING- SEGMENT[82] LENGTH TOO SMALL (0.000640)
WARNING- SEGMENT[83] LENGTH TOO SMALL (0.000640)
WARNING- SEGMENT[84] LENGTH TOO SMALL (0.000640)
WARNING- SEGMENT[85] LENGTH TOO SMALL (0.000640)
WARNING- SEGMENT[86] LENGTH TOO SMALL (0.000640)
WARNING- SEGMENT[87] LENGTH TOO SMALL (0.000640)
WARNING- SEGMENT[88] LENGTH TOO SMALL (0.000640)
WARNING- SEGMENT[89] LENGTH TOO SMALL (0.000640)
WARNING- SEGMENT[90] LENGTH TOO SMALL (0.000640)
WARNING- SEGMENT[91] LENGTH TOO SMALL (0.000640)
WARNING- SEGMENT[92] LENGTH TOO SMALL (0.000640)
WARNING- SEGMENT[93] LENGTH TOO SMALL (0.000640)
WARNING- SEGMENT[94] LENGTH TOO SMALL (0.000640)
WARNING- SEGMENT[95] LENGTH TOO SMALL (0.000640)
WARNING- SEGMENT[96] LENGTH TOO SMALL (0.000640)
WARNING- SEGMENT[97] LENGTH TOO SMALL (0.000640)
WARNING- SEGMENT[98] LENGTH TOO SMALL (0.000640)
WARNING- SEGMENT[99] LENGTH TOO SMALL (0.000640)
WARNING- SEGMENT[100] LENGTH TOO SMALL (0.000640)
WARNING- SEGMENT[101] LENGTH TOO SMALL (0.000640)
WARNING- SEGMENT[102] LENGTH TOO SMALL (0.000640)
WARNING- SEGMENT[103] LENGTH TOO SMALL (0.000640)
WARNING- SEGMENT[104] LENGTH TOO SMALL (0.000640)
WARNING- SEGMENT[105] LENGTH TOO SMALL (0.000640)
WARNING- SEGMENT[106] LENGTH TOO SMALL (0.000640)
WARNING- SEGMENT[107] LENGTH TOO SMALL (0.000640)
WARNING- SEGMENT[108] LENGTH TOO SMALL (0.000640)



                               - - - STRUCTURE IMPEDANCE LOADING - - -

                                   THIS STRUCTURE IS NOT LOADED



                                  - - - ANTENNA ENVIRONMENT - - -

                                        FINITE GROUND.  REFLECTION COEFFICIENT APPROXIMATION
                                        RELATIVE DIELECTRIC CONST.=  4.000
                                        CONDUCTIVITY= 3.000E-03 MHOS/METER
                                        COMPLEX DIELECTRIC CONSTANT= 4.00000E+00-5.39265E+01



                                - - - MATRIX TIMING - - -

                        FILL=    218 msec  FACTOR: 47 msec




                                          - - - ANTENNA INPUT PARAMETERS - - -

   TAG   SEG.    VOLTAGE (VOLTS)         CURRENT (AMPS)         IMPEDANCE (OHMS)        ADMITTANCE (MHOS)      POWER
   NO.   NO.    REAL        IMAG.       REAL        IMAG.       REAL        IMAG.       REAL        IMAG.     (WATTS)
    19    55 1.00000E+00 0.00000E+00 9.63018E-08 2.25953E-04 1.88624E+00-4.42569E+03 9.63018E-08 2.25953E-04 4.81509E-08


                             - - - CURRENTS AND LOCATION - - -

                                 DISTANCES IN WAVELENGTHS


  SEG.  TAG    COORD. OF SEG. CENTER     SEG.            - - - CURRENT (AMPS) - - -
  NO.   NO.     X        Y        Z      LENGTH     REAL        IMAG.       MAG.        PHASE
     1    1  -0.0110   0.0000   0.0330  0.00064   1.3919E-09  2.5790E-06  2.5790E-06   89.969
     2    1  -0.0109   0.0000   0.0324  0.00064   3.8854E-09  7.0745E-06  7.0745E-06   89.969
     3    1  -0.0109   0.0000   0.0318  0.00064   6.3064E-09  1.1279E-05  1.1279E-05   89.968
     4    2  -0.0108   0.0000   0.0311  0.00064   8.7479E-09  1.5367E-05  1.5367E-05   89.967
     5    2  -0.0106   0.0000   0.0305  0.00064   1.1223E-08  1.9381E-05  1.9381E-05   89.967
     6    2  -0.0104   0.0000   0.0299  0.00064   1.3745E-08  2.3344E-05  2.3344E-05   89.966
     7    3  -0.0102   0.0000   0.0293  0.00064   1.6324E-08  2.7269E-05  2.7269E-05   89.966
     8    3  -0.0099   0.0000   0.0287  0.00064   1.8949E-08  3.1163E-05  3.1163E-05   89.965
     9    3  -0.0097   0.0000   0.0281  0.00064   2.1628E-08  3.5033E-05  3.5033E-05   89.965
    10    4  -0.0093   0.0000   0.0276  0.00064   2.4363E-08  3.8885E-05  3.8885E-05   89.964
    11    4  -0.0090   0.0000   0.0271  0.00064   2.7140E-08  4.2720E-05  4.2720E-05   89.964
    12    4  -0.0086   0.0000   0.0265  0.00064   2.9961E-08  4.6541E-05  4.6541E-05   89.963
    13    5  -0.0082   0.0000   0.0261  0.00064   3.2828E-08  5.0353E-05  5.0353E-05   89.963
    14    5  -0.0078   0.0000   0.0256  0.00064   3.5720E-08  5.4156E-05  5.4156E-05   89.962
    15    5  -0.0073   0.0000   0.0251  0.00064   3.8638E-08  5.7951E-05  5.7951E-05   89.962
    16    6  -0.0068   0.0000   0.0247  0.00064   4.1582E-08  6.1742E-05  6.1742E-05   89.961
    17    6  -0.0063   0.0000   0.0244  0.00064   4.4527E-08  6.5528E-05  6.5528E-05   89.961
    18    6  -0.0058   0.0000   0.0240  0.00064   4.7471E-08  6.9311E-05  6.9311E-05   89.961
    19    7  -0.0052   0.0000   0.0237  0.00064   5.0412E-08  7.3093E-05  7.3093E-05   89.960
    20    7  -0.0046   0.0000   0.0234  0.00064   5.3322E-08  7.6875E-05  7.6875E-05   89.960
    21    7  -0.0041   0.0000   0.0231  0.00064   5.6198E-08  8.0657E-05  8.0657E-05   89.960
    22    8  -0.0035   0.0000   0.0229  0.00064   5.9037E-08  8.4441E-05  8.4441E-05   89.960
    23    8  -0.0028   0.0000   0.0228  0.00064   6.1810E-08  8.8228E-05  8.8228E-05   89.960
    24    8  -0.0022   0.0000   0.0226  0.00064   6.4513E-08  9.2019E-05  9.2019E-05   89.960
    25    9  -0.0016   0.0000   0.0225  0.00064   6.7143E-08  9.5816E-05  9.5816E-05   89.960
    26    9  -0.0010   0.0000   0.0224  0.00064   6.9673E-08  9.9618E-05  9.9618E-05   89.960
    27    9  -0.0003   0.0000   0.0224  0.00064   7.2101E-08  1.0343E-04  1.0343E-04   89.960
    28   10   0.0003   0.0000   0.0224  0.00064   7.4424E-08  1.0725E-04  1.0725E-04   89.960
    29   10   0.0010   0.0000   0.0224  0.00064   7.6622E-08  1.1108E-04  1.1108E-04   89.960
    30   10   0.0016   0.0000   0.0225  0.00064   7.8693E-08  1.1492E-04  1.1492E-04   89.961
    31   11   0.0022   0.0000   0.0226  0.00064   8.0637E-08  1.1877E-04  1.1877E-04   89.961
    32   11   0.0028   0.0000   0.0228  0.00064   8.2443E-08  1.2264E-04  1.2264E-04   89.961
    33   11   0.0035   0.0000   0.0229  0.00064   8.4113E-08  1.2653E-04  1.2653E-04   89.962
    34   12   0.0041   0.0000   0.0231  0.00064   8.5647E-08  1.3044E-04  1.3044E-04   89.962
    35   12   0.0046   0.0000   0.0234  0.00064   8.7044E-08  1.3437E-04  1.3437E-04   89.963
    36   12   0.0052   0.0000   0.0237  0.00064   8.8308E-08  1.3833E-04  1.3833E-04   89.963
    37   13   0.0058   0.0000   0.0240  0.00064   8.9443E-08  1.4232E-04  1.4232E-04   89.964
    38   13   0.0063   0.0000   0.0244  0.00064   9.0456E-08  1.4633E-04  1.4633E-04   89.965
    39   13   0.0068   0.0000   0.0247  0.00064   9.1353E-08  1.5039E-04  1.5039E-04   89.965
    40   14   0.0073   0.0000   0.0251  0.00064   9.2138E-08  1.5448E-04  1.5448E-04   89.966
    41   14   0.0078   0.0000   0.0256  0.00064   9.2825E-08  1.5863E-04  1.5863E-04   89.966
    42   14   0.0082   0.0000   0.0261  0.00064   9.3419E-08  1.6282E-04  1.6282E-04   89.967
    43   15   0.0086   0.0000   0.0265  0.00064   9.3925E-08  1.6708E-04  1.6708E-04   89.968
    44   15   0.0090   0.0000   0.0271  0.00064   9.4361E-08  1.7141E-04  1.7141E-04   89.968
    45   15   0.0093   0.0000   0.0276  0.00064   9.4729E-08  1.7581E-04  1.7581E-04   89.969
    46   16   0.0097   0.0000   0.0281  0.00064   9.5036E-08  1.8030E-04  1.8030E-04   89.970
    47   16   0.0099   0.0000   0.0287  0.00064   9.5296E-08  1.8489E-04  1.8489E-04   89.970
    48   16   0.0102   0.0000   0.0293  0.00064   9.5512E-08  1.8959E-04  1.8959E-04   89.971
    49   17   0.0104   0.0000   0.0299  0.00064   9.5688E-08  1.9442E-04  1.9442E-04   89.972
    50   17   0.0106   0.0000   0.0305  0.00064   9.5838E-08  1.9938E-04  1.9938E-04   89.972
    51   17   0.0108   0.0000   0.0311  0.00064   9.5962E-08  2.0449E-04  2.0449E-04   89.973
    52   18   0.0109   0.0000   0.0318  0.00064   9.6063E-08  2.0977E-04  2.0977E-04   89.974
    53   18   0.0109   0.0000   0.0324  0.00064   9.6154E-08  2.1517E-04  2.1517E-04   89.974
    54   18   0.0110   0.0000   0.0330  0.00064   9.6235E-08  2.2075E-04  2.2075E-04   89.975
    55   19   0.0115   0.0000   0.0334  0.00100   9.6302E-08  2.2595E-04  2.2595E-04   89.976
    56   20   0.0120   0.0000   0.0330  0.00064   9.6235E-08  2.2075E-04  2.2075E-04   89.975
    57   20   0.0121   0.0000   0.0324  0.00064   9.6154E-08  2.1517E-04  2.1517E-04   89.974
    58   20   0.0121   0.0000   0.0318  0.00064   9.6063E-08  2.0977E-04  2.0977E-04   89.974
    59   21   0.0123   0.0000   0.0311  0.00064   9.5962E-08  2.0449E-04  2.0449E-04   89.973
    60   21   0.0124   0.0000   0.0305  0.00064   9.5838E-08  1.9938E-04  1.9938E-04   89.972
    61   21   0.0126   0.0000   0.0299  0.00064   9.5688E-08  1.9442E-04  1.9442E-04   89.972
    62   22   0.0128   0.0000   0.0293  0.00064   9.5512E-08  1.8959E-04  1.8959E-04   89.971
    63   22   0.0131   0.0000   0.0287  0.00064   9.5296E-08  1.8489E-04  1.8489E-04   89.970
    64   22   0.0133   0.0000   0.0281  0.00064   9.5036E-08  1.8030E-04  1.8030E-04   89.970
    65   23   0.0137   0.0000   0.0276  0.00064   9.4729E-08  1.7581E-04  1.7581E-04   89.969
    66   23   0.0140   0.0000   0.0271  0.00064   9.4361E-08  1.7141E-04  1.7141E-04   89.968
    67   23   0.0144   0.0000   0.0265  0.00064   9.3925E-08  1.6708E-04  1.6708E-04   89.968
    68   24   0.0148   0.0000   0.0261  0.00064   9.3419E-08  1.6282E-04  1.6282E-04   89.967
    69   24   0.0153   0.0000   0.0256  0.00064   9.2825E-08  1.5863E-04  1.5863E-04   89.966
    70   24   0.0157   0.0000   0.0251  0.00064   9.2138E-08  1.5448E-04  1.5448E-04   89.966
    71   25   0.0162   0.0000   0.0247  0.00064   9.1353E-08  1.5039E-04  1.5039E-04   89.965
    72   25   0.0167   0.0000   0.0244  0.00064   9.0456E-08  1.4633E-04  1.4633E-04   89.965
    73   25   0.0172   0.0000   0.0240  0.00064   8.9443E-08  1.4232E-04  1.4232E-04   89.964
    74   26   0.0178   0.0000   0.0237  0.00064   8.8308E-08  1.3833E-04  1.3833E-04   89.963
    75   26   0.0184   0.0000   0.0234  0.00064   8.7044E-08  1.3437E-04  1.3437E-04   89.963
    76   26   0.0190   0.0000   0.0231  0.00064   8.5647E-08  1.3044E-04  1.3044E-04   89.962
    77   27   0.0196   0.0000   0.0229  0.00064   8.4113E-08  1.2653E-04  1.2653E-04   89.962
    78   27   0.0202   0.0000   0.0228  0.00064   8.2443E-08  1.2264E-04  1.2264E-04   89.961
    79   27   0.0208   0.0000   0.0226  0.00064   8.0637E-08  1.1877E-04  1.1877E-04   89.961
    80   28   0.0214   0.0000   0.0225  0.00064   7.8693E-08  1.1492E-04  1.1492E-04   89.961
    81   28   0.0221   0.0000   0.0224  0.00064   7.6622E-08  1.1108E-04  1.1108E-04   89.960
    82   28   0.0227   0.0000   0.0224  0.00064   7.4424E-08  1.0725E-04  1.0725E-04   89.960
    83   29   0.0233   0.0000   0.0224  0.00064   7.2101E-08  1.0343E-04  1.0343E-04   89.960
    84   29   0.0240   0.0000   0.0224  0.00064   6.9673E-08  9.9618E-05  9.9618E-05   89.960
    85   29   0.0246   0.0000   0.0225  0.00064   6.7143E-08  9.5816E-05  9.5816E-05   89.960
    86   30   0.0252   0.0000   0.0226  0.00064   6.4513E-08  9.2019E-05  9.2019E-05   89.960
    87   30   0.0259   0.0000   0.0228  0.00064   6.1810E-08  8.8228E-05  8.8228E-05   89.960
    88   30   0.0265   0.0000   0.0229  0.00064   5.9037E-08  8.4441E-05  8.4441E-05   89.960
    89   31   0.0271   0.0000   0.0231  0.00064   5.6198E-08  8.0657E-05  8.0657E-05   89.960
    90   31   0.0276   0.0000   0.0234  0.00064   5.3322E-08  7.6875E-05  7.6875E-05   89.960
    91   31   0.0282   0.0000   0.0237  0.00064   5.0412E-08  7.3093E-05  7.3093E-05   89.960
    92   32   0.0288   0.0000   0.0240  0.00064   4.7471E-08  6.9311E-05  6.9311E-05   89.961
    93   32   0.0293   0.0000   0.0244  0.00064   4.4527E-08  6.5528E-05  6.5528E-05   89.961
    94   32   0.0298   0.0000   0.0247  0.00064   4.1582E-08  6.1742E-05  6.1742E-05   89.961
    95   33   0.0303   0.0000   0.0251  0.00064   3.8638E-08  5.7951E-05  5.7951E-05   89.962
    96   33   0.0308   0.0000   0.0256  0.00064   3.5720E-08  5.4156E-05  5.4156E-05   89.962
    97   33   0.0312   0.0000   0.0261  0.00064   3.2828E-08  5.0353E-05  5.0353E-05   89.963
    98   34   0.0316   0.0000   0.0265  0.00064   2.9961E-08  4.6541E-05  4.6541E-05   89.963
    99   34   0.0320   0.0000   0.0271  0.00064   2.7140E-08  4.2720E-05  4.2720E-05   89.964
   100   34   0.0324   0.0000   0.0276  0.00064   2.4363E-08  3.8885E-05  3.8885E-05   89.964
   101   35   0.0327   0.0000   0.0281  0.00064   2.1628E-08  3.5033E-05  3.5033E-05   89.965
   102   35   0.0330   0.0000   0.0287  0.00064   1.8949E-08  3.1163E-05  3.1163E-05   89.965
   103   35   0.0332   0.0000   0.0293  0.00064   1.6324E-08  2.7269E-05  2.7269E-05   89.966
   104   36   0.0334   0.0000   0.0299  0.00064   1.3745E-08  2.3344E-05  2.3344E-05   89.966
   105   36   0.0336   0.0000   0.0305  0.00064   1.1223E-08  1.9381E-05  1.9381E-05   89.967
   106   36   0.0338   0.0000   0.0311  0.00064   8.7479E-09  1.5367E-05  1.5367E-05   89.967
   107   37   0.0339   0.0000   0.0318  0.00064   6.3064E-09  1.1279E-05  1.1279E-05   89.968
   108   37   0.0339   0.0000   0.0324  0.00064   3.8854E-09  7.0745E-06  7.0745E-06   89.969
   109   37   0.0340   0.0000   0.0330  0.00064   1.3919E-09  2.5790E-06  2.5790E-06   89.969



                                        - - - POWER BUDGET - - -

                                           INPUT POWER   = 4.8151E-08 WATTS
                                           RADIATED POWER= 4.8151E-08 WATTS
                                           STRUCTURE LOSS= 0.0000E+00 WATTS
                                           NETWORK LOSS  = 0.0000E+00 WATTS
                                           EFFICIENCY    = 100.00 PERCENT



                                                - - - RADIATION PATTERNS - - -

  - - ANGLES - -           - POWER GAINS -       - - - POLARIZATION - - -    - - - E(THETA) - - -    - - - E(PHI) - - -
  THETA     PHI        VERT.   HOR.    TOTAL      AXIAL     TILT   SENSE     MAGNITUDE    PHASE      MAGNITUDE    PHASE 
 DEGREES  DEGREES       DB      DB      DB        RATIO     DEG.              VOLTS/M    DEGREES      VOLTS/M    DEGREES
  -90.00     0.00    -999.99 -999.99 -999.99    0.00000     0.00            9.04344E-15   173.10    0.00000E+00     0.00
  -85.00     0.00     -24.51 -999.99  -24.51    0.00000     0.00  LINEAR    1.01147E-04     9.88    0.00000E+00     0.00
  -80.00     0.00     -21.18 -999.99  -21.18    0.00000     0.00  LINEAR    1.48254E-04    18.71    0.00000E+00     0.00
  -75.00     0.00     -19.62 -999.99  -19.62    0.00000     0.00  LINEAR    1.77484E-04    24.89    0.00000E+00     0.00
  -70.00     0.00     -18.56 -999.99  -18.56    0.00000     0.00  LINEAR    2.00494E-04    30.05    0.00000E+00     0.00
  -65.00     0.00     -17.69 -999.99  -17.69    0.00000     0.00  LINEAR    2.21711E-04    34.70    0.00000E+00     0.00
  -60.00     0.00     -16.89 -999.99  -16.89    0.00000     0.00  LINEAR    2.42986E-04    38.98    0.00000E+00     0.00
  -55.00     0.00     -16.14 -999.99  -16.14    0.00000     0.00  LINEAR    2.65016E-04    42.90    0.00000E+00     0.00
  -50.00     0.00     -15.42 -999.99  -15.42    0.00000     0.00  LINEAR    2.87876E-04    46.46    0.00000E+00     0.00
  -45.00     0.00     -14.74 -999.99  -14.74    0.00000     0.00  LINEAR    3.11275E-04    49.64    0.00000E+00     0.00
  -40.00     0.00     -14.11 -999.99  -14.11    0.00000     0.00  LINEAR    3.34702E-04    52.43    0.00000E+00     0.00
  -35.00     0.00     -13.54 -999.99  -13.54    0.00000     0.00  LINEAR    3.57525E-04    54.87    0.00000E+00     0.00
  -30.00     0.00     -13.03 -999.99  -13.03    0.00000     0.00  LINEAR    3.79061E-04    56.96    0.00000E+00     0.00
  -25.00     0.00     -12.59 -999.99  -12.59    0.00000     0.00  LINEAR    3.98633E-04    58.73    0.00000E+00     0.00
  -20.00     0.00     -12.23 -999.99  -12.23    0.00000     0.00  LINEAR    4.15608E-04    60.21    0.00000E+00     0.00
  -15.00     0.00     -11.95 -999.99  -11.95    0.00000     0.00  LINEAR    4.29430E-04    61.43    0.00000E+00     0.00
  -10.00     0.00     -11.74 -999.99  -11.74    0.00000     0.00  LINEAR    4.39644E-04    62.39    0.00000E+00     0.00
   -5.00     0.00     -11.62 -999.99  -11.62    0.00000     0.00  LINEAR    4.45911E-04    63.10    0.00000E+00     0.00
    0.00     0.00     -11.58 -999.99  -11.58    0.00000     0.00  LINEAR    4.48023E-04    63.58    0.00000E+00     0.00
    5.00     0.00     -11.62 -999.99  -11.62    0.00000     0.00  LINEAR    4.45911E-04    63.83    0.00000E+00     0.00
   10.00     0.00     -11.74 -999.99  -11.74    0.00000     0.00  LINEAR    4.39644E-04    63.83    0.00000E+00     0.00
   15.00     0.00     -11.95 -999.99  -11.95    0.00000     0.00  LINEAR    4.29430E-04    63.57    0.00000E+00     0.00
   20.00     0.00     -12.23 -999.99  -12.23    0.00000     0.00  LINEAR    4.15608E-04    63.05    0.00000E+00     0.00
   25.00     0.00     -12.59 -999.99  -12.59    0.00000     0.00  LINEAR    3.98633E-04    62.23    0.00000E+00     0.00
   30.00     0.00     -13.03 -999.99  -13.03    0.00000     0.00  LINEAR    3.79061E-04    61.10    0.00000E+00     0.00
   35.00     0.00     -13.54 -999.99  -13.54    0.00000     0.00  LINEAR    3.57525E-04    59.62    0.00000E+00     0.00
   40.00     0.00     -14.11 -999.99  -14.11    0.00000     0.00  LINEAR    3.34702E-04    57.76    0.00000E+00     0.00
   45.00     0.00     -14.74 -999.99  -14.74    0.00000     0.00  LINEAR    3.11275E-04    55.50    0.00000E+00     0.00
   50.00     0.00     -15.42 -999.99  -15.42    0.00000     0.00  LINEAR    2.87876E-04    52.81    0.00000E+00     0.00
   55.00     0.00     -16.14 -999.99  -16.14    0.00000     0.00  LINEAR    2.65016E-04    49.69    0.00000E+00     0.00
   60.00     0.00     -16.89 -999.99  -16.89    0.00000     0.00  LINEAR    2.42986E-04    46.15    0.00000E+00     0.00
   65.00     0.00     -17.69 -999.99  -17.69    0.00000     0.00  LINEAR    2.21711E-04    42.20    0.00000E+00     0.00
   70.00     0.00     -18.56 -999.99  -18.56    0.00000     0.00  LINEAR    2.00494E-04    37.83    0.00000E+00     0.00
   75.00     0.00     -19.62 -999.99  -19.62    0.00000     0.00  LINEAR    1.77484E-04    32.89    0.00000E+00     0.00
   80.00     0.00     -21.18 -999.99  -21.18    0.00000     0.00  LINEAR    1.48254E-04    26.87    0.00000E+00     0.00
   85.00     0.00     -24.51 -999.99  -24.51    0.00000     0.00  LINEAR    1.01147E-04    18.13    0.00000E+00     0.00
   90.00     0.00    -999.99 -999.99 -999.99    0.00000     0.00            9.04352E-15  -178.61    0.00000E+00     0.00







                                 - - - - - - FREQUENCY - - - - - -

                                    FREQUENCY= 2.0000E+00 MHZ
                                    WAVELENGTH= 1.4990E+02 METERS




                    APPROXIMATE INTEGRATION EMPLOYED FOR SEGMENTS MORE THAN   1.000 WAVELENGTHS APART

                    THE EXTENDED THIN WIRE KERNEL WILL BE USED
WARNING- SEGMENT[0] LENGTH TOO SMALL (0.001279)
WARNING- SEGMENT[1] LENGTH TOO SMALL (0.001279)
WARNING- SEGMENT[2] LENGTH TOO SMALL (0.001279)
WARNING- SEGMENT[3] LENGTH TOO SMALL (0.001279)
WARNING- SEGMENT[4] LENGTH TOO SMALL (0.001279)
WARNING- SEGMENT[5] LENGTH TOO SMALL (0.001279)
WARNING- SEGMENT[6] LENGTH TOO SMALL (0.001279)
WARNING- SEGMENT[7] LENGTH TOO SMALL (0.001279)
WARNING- SEGMENT[8] LENGTH TOO SMALL (0.001279)
WARNING- SEGMENT[9] LENGTH TOO SMALL (0.001279)
WARNING- SEGMENT[10] LENGTH TOO SMALL (0.001279)
WARNING- SEGMENT[11] LENGTH TOO SMALL (0.001279)
WARNING- SEGMENT[12] LENGTH TOO SMALL (0.001279)
WARNING- SEGMENT[13] LENGTH TOO SMALL (0.001279)
WARNING- SEGMENT[14] LENGTH TOO SMALL (0.001279)
WARNING- SEGMENT[15] LENGTH TOO SMALL (0.001279)
WARNING- SEGMENT[16] LENGTH TOO SMALL (0.001279)
WARNING- SEGMENT[17] LENGTH TOO SMALL (0.001279)
WARNING- SEGMENT[18] LENGTH TOO SMALL (0.001279)
WARNING- SEGMENT[19] LENGTH TOO SMALL (0.001279)
WARNING- SEGMENT[20] LENGTH TOO SMALL (0.001279)
WARNING- SEGMENT[21] LENGTH TOO SMALL (0.001279)
WARNING- SEGMENT[22] LENGTH TOO SMALL (0.001279)
WARNING- SEGMENT[23] LENGTH TOO SMALL (0.001279)
WARNING- SEGMENT[24] LENGTH TOO SMALL (0.001279)
WARNING- SEGMENT[25] LENGTH TOO SMALL (0.001279)
WARNING- SEGMENT[26] LENGTH TOO SMALL (0.001279)
WARNING- SEGMENT[27] LENGTH TOO SMALL (0.001279)
WARNING- SEGMENT[28] LENGTH TOO SMALL (0.001279)
WARNING- SEGMENT[29] LENGTH TOO SMALL (0.001279)
WARNING- SEGMENT[30] LENGTH TOO SMALL (0.001279)
WARNING- SEGMENT[31] LENGTH TOO SMALL (0.001279)
WARNING- SEGMENT[32] LENGTH TOO SMALL (0.001279)
WARNING- SEGMENT[33] LENGTH TOO SMALL (0.001279)
WARNING- SEGMENT[34] LENGTH TOO SMALL (0.001279)
WARNING- SEGMENT[35] LENGTH TOO SMALL (0.001279)
WARNING- SEGMENT[36] LENGTH TOO SMALL (0.001279)
WARNING- SEGMENT[37] LENGTH TOO SMALL (0.001279)
WARNING- SEGMENT[38] LENGTH TOO SMALL (0.001279)
WARNING- SEGMENT[39] LENGTH TOO SMALL (0.001279)
WARNING- SEGMENT[40] LENGTH TOO SMALL (0.001279)
WARNING- SEGMENT[41] LENGTH TOO SMALL (0.001279)
WARNING- SEGMENT[42] LENGTH TOO SMALL (0.001279)
WARNING- SEGMENT[43] LENGTH TOO SMALL (0.001279)
WARNING- SEGMENT[44] LENGTH TOO SMALL (0.001279)
WARNING- SEGMENT[45] LENGTH TOO SMALL (0.001279)
WARNING- SEGMENT[46] LENGTH TOO SMALL (0.001279)
WARNING- SEGMENT[47] LENGTH TOO SMALL (0.001279)
WARNING- SEGMENT[48] LENGTH TOO SMALL (0.001279)
WARNING- SEGMENT[49] LENGTH TOO SMALL (0.001279)
WARNING- SEGMENT[50] LENGTH TOO SMALL (0.001279)
WARNING- SEGMENT[51] LENGTH TOO SMALL (0.001279)
WARNING- SEGMENT[52] LENGTH TOO SMALL (0.001279)
WARNING- SEGMENT[53] LENGTH TOO SMALL (0.001279)
WARNING- SEGMENT[54] LENGTH TOO SMALL (0.002001)
WARNING- SEGMENT[55] LENGTH TOO SMALL (0.001279)
WARNING- SEGMENT[56] LENGTH TOO SMALL (0.001279)
WARNING- SEGMENT[57] LENGTH TOO SMALL (0.001279)
WARNING- SEGMENT[58] LENGTH TOO SMALL (0.001279)
WARNING- SEGMENT[59] LENGTH TOO SMALL (0.001279)
WARNING- SEGMENT[60] LENGTH TOO SMALL (0.001279)
WARNING- SEGMENT[61] LENGTH TOO SMALL (0.001279)
WARNING- SEGMENT[62] LENGTH TOO SMALL (0.001279)
WARNING- SEGMENT[63] LENGTH TOO SMALL (0.001279)
WARNING- SEGMENT[64] LENGTH TOO SMALL (0.001279)
WARNING- SEGMENT[65] LENGTH TOO SMALL (0.001279)
WARNING- SEGMENT[66] LENGTH TOO SMALL (0.001279)
WARNING- SEGMENT[67] LENGTH TOO SMALL (0.001279)
WARNING- SEGMENT[68] LENGTH TOO SMALL (0.001279)
WARNING- SEGMENT[69] LENGTH TOO SMALL (0.001279)
WARNING- SEGMENT[70] LENGTH TOO SMALL (0.001279)
WARNING- SEGMENT[71] LENGTH TOO SMALL (0.001279)
WARNING- SEGMENT[72] LENGTH TOO SMALL (0.001279)
WARNING- SEGMENT[73] LENGTH TOO SMALL (0.001279)
WARNING- SEGMENT[74] LENGTH TOO SMALL (0.001279)
WARNING- SEGMENT[75] LENGTH TOO SMALL (0.001279)
WARNING- SEGMENT[76] LENGTH TOO SMALL (0.001279)
WARNING- SEGMENT[77] LENGTH TOO SMALL (0.001279)
WARNING- SEGMENT[78] LENGTH TOO SMALL (0.001279)
WARNING- SEGMENT[79] LENGTH TOO SMALL (0.001279)
WARNING- SEGMENT[80] LENGTH TOO SMALL (0.001279)
WARNING- SEGMENT[81] LENGTH TOO SMALL (0.001279)
WARNING- SEGMENT[82] LENGTH TOO SMALL (0.001279)
WARNING- SEGMENT[83] LENGTH TOO SMALL (0.001279)
WARNING- SEGMENT[84] LENGTH TOO SMALL (0.001279)
WARNING- SEGMENT[85] LENGTH TOO SMALL (0.001279)
WARNING- SEGMENT[86] LENGTH TOO SMALL (0.001279)
WARNING- SEGMENT[87] LENGTH TOO SMALL (0.001279)
WARNING- SEGMENT[88] LENGTH TOO SMALL (0.001279)
WARNING- SEGMENT[89] LENGTH TOO SMALL (0.001279)
WARNING- SEGMENT[90] LENGTH TOO SMALL (0.001279)
WARNING- SEGMENT[91] LENGTH TOO SMALL (0.001279)
WARNING- SEGMENT[92] LENGTH TOO SMALL (0.001279)
WARNING- SEGMENT[93] LENGTH TOO SMALL (0.001279)
WARNING- SEGMENT[94] LENGTH TOO SMALL (0.001279)
WARNING- SEGMENT[95] LENGTH TOO SMALL (0.001279)
WARNING- SEGMENT[96] LENGTH TOO SMALL (0.001279)
WARNING- SEGMENT[97] LENGTH TOO SMALL (0.001279)
WARNING- SEGMENT[98] LENGTH TOO SMALL (0.001279)
WARNING- SEGMENT[99] LENGTH TOO SMALL (0.001279)
WARNING- SEGMENT[100] LENGTH TOO SMALL (0.001279)
WARNING- SEGMENT[101] LENGTH TOO SMALL (0.001279)
WARNING- SEGMENT[102] LENGTH TOO SMALL (0.001279)
WARNING- SEGMENT[103] LENGTH TOO SMALL (0.001279)
WARNING- SEGMENT[104] LENGTH TOO SMALL (0.001279)
WARNING- SEGMENT[105] LENGTH TOO SMALL (0.001279)
WARNING- SEGMENT[106] LENGTH TOO SMALL (0.001279)
WARNING- SEGMENT[107] LENGTH TOO SMALL (0.001279)
WARNING- SEGMENT[108] LENGTH TOO SMALL (0.001279)



                               - - - STRUCTURE IMPEDANCE LOADING - - -

                                   THIS STRUCTURE IS NOT LOADED



                                  - - - ANTENNA ENVIRONMENT - - -

                                        FINITE GROUND.  REFLECTION COEFFICIENT APPROXIMATION
                                        RELATIVE DIELECTRIC CONST.=  4.000
                                        CONDUCTIVITY= 3.000E-03 MHOS/METER
                                        COMPLEX DIELECTRIC CONSTANT= 4.00000E+00-2.69632E+01



                                - - - MATRIX TIMING - - -

                        FILL=    219 msec  FACTOR: 47 msec




                                          - - - ANTENNA INPUT PARAMETERS - - -

   TAG   SEG.    VOLTAGE (VOLTS)         CURRENT (AMPS)         IMPEDANCE (OHMS)        ADMITTANCE (MHOS)      POWER
   NO.   NO.    REAL        IMAG.       REAL        IMAG.       REAL        IMAG.       REAL        IMAG.     (WATTS)
    19    55 1.00000E+00 0.00000E+00 3.34749E-07 4.72727E-04 1.49795E+00-2.11538E+03 3.34749E-07 4.72727E-04 1.67374E-07


                             - - - CURRENTS AND LOCATION - - -

                                 DISTANCES IN WAVELENGTHS


  SEG.  TAG    COORD. OF SEG. CENTER     SEG.            - - - CURRENT (AMPS) - - -
  NO.   NO.     X        Y        Z      LENGTH     REAL        IMAG.       MAG.        PHASE
     1    1  -0.0220   0.0000   0.0661  0.00128   5.3806E-09  5.5511E-06  5.5511E-06   89.944
     2    1  -0.0218   0.0000   0.0648  0.00128   1.4949E-08  1.5227E-05  1.5227E-05   89.944
     3    1  -0.0217   0.0000   0.0635  0.00128   2.4149E-08  2.4276E-05  2.4276E-05   89.943
     4    2  -0.0215   0.0000   0.0623  0.00128   3.3338E-08  3.3071E-05  3.3071E-05   89.942
     5    2  -0.0212   0.0000   0.0610  0.00128   4.2565E-08  4.1708E-05  4.1708E-05   89.942
     6    2  -0.0209   0.0000   0.0598  0.00128   5.1879E-08  5.0231E-05  5.0231E-05   89.941
     7    3  -0.0204   0.0000   0.0586  0.00128   6.1313E-08  5.8669E-05  5.8669E-05   89.940
     8    3  -0.0199   0.0000   0.0574  0.00128   7.0833E-08  6.7039E-05  6.7039E-05   89.939
     9    3  -0.0193   0.0000   0.0563  0.00128   8.0457E-08  7.5353E-05  7.5353E-05   89.939
    10    4  -0.0187   0.0000   0.0552  0.00128   9.0202E-08  8.3622E-05  8.3622E-05   89.938
    11    4  -0.0180   0.0000   0.0541  0.00128   1.0001E-07  9.1852E-05  9.1852E-05   89.938
    12    4  -0.0172   0.0000   0.0531  0.00128   1.0990E-07  1.0005E-04  1.0005E-04   89.937
    13    5  -0.0164   0.0000   0.0521  0.00128   1.1987E-07  1.0822E-04  1.0822E-04   89.937
    14    5  -0.0155   0.0000   0.0512  0.00128   1.2986E-07  1.1636E-04  1.1636E-04   89.936
    15    5  -0.0146   0.0000   0.0503  0.00128   1.3987E-07  1.2448E-04  1.2448E-04   89.936
    16    6  -0.0136   0.0000   0.0495  0.00128   1.4991E-07  1.3259E-04  1.3259E-04   89.935
    17    6  -0.0126   0.0000   0.0487  0.00128   1.5989E-07  1.4068E-04  1.4068E-04   89.935
    18    6  -0.0115   0.0000   0.0480  0.00128   1.6981E-07  1.4875E-04  1.4875E-04   89.935
    19    7  -0.0104   0.0000   0.0474  0.00128   1.7968E-07  1.5682E-04  1.5682E-04   89.934
    20    7  -0.0093   0.0000   0.0468  0.00128   1.8940E-07  1.6487E-04  1.6487E-04   89.934
    21    7  -0.0081   0.0000   0.0463  0.00128   1.9897E-07  1.7292E-04  1.7292E-04   89.934
    22    8  -0.0069   0.0000   0.0459  0.00128   2.0839E-07  1.8096E-04  1.8096E-04   89.934
    23    8  -0.0057   0.0000   0.0455  0.00128   2.1757E-07  1.8900E-04  1.8900E-04   89.934
    24    8  -0.0044   0.0000   0.0452  0.00128   2.2650E-07  1.9703E-04  1.9703E-04   89.934
    25    9  -0.0032   0.0000   0.0450  0.00128   2.3517E-07  2.0507E-04  2.0507E-04   89.934
    26    9  -0.0019   0.0000   0.0449  0.00128   2.4351E-07  2.1311E-04  2.1311E-04   89.935
    27    9  -0.0006   0.0000   0.0448  0.00128   2.5151E-07  2.2115E-04  2.2115E-04   89.935
    28   10   0.0006   0.0000   0.0448  0.00128   2.5917E-07  2.2921E-04  2.2921E-04   89.935
    29   10   0.0019   0.0000   0.0449  0.00128   2.6643E-07  2.3727E-04  2.3727E-04   89.936
    30   10   0.0032   0.0000   0.0450  0.00128   2.7328E-07  2.4534E-04  2.4534E-04   89.936
    31   11   0.0044   0.0000   0.0452  0.00128   2.7974E-07  2.5343E-04  2.5343E-04   89.937
    32   11   0.0057   0.0000   0.0455  0.00128   2.8575E-07  2.6154E-04  2.6154E-04   89.937
    33   11   0.0069   0.0000   0.0459  0.00128   2.9134E-07  2.6967E-04  2.6967E-04   89.938
    34   12   0.0081   0.0000   0.0463  0.00128   2.9649E-07  2.7783E-04  2.7783E-04   89.939
    35   12   0.0093   0.0000   0.0468  0.00128   3.0122E-07  2.8602E-04  2.8602E-04   89.940
    36   12   0.0104   0.0000   0.0474  0.00128   3.0553E-07  2.9425E-04  2.9425E-04   89.941
    37   13   0.0115   0.0000   0.0480  0.00128   3.0943E-07  3.0253E-04  3.0253E-04   89.941
    38   13   0.0126   0.0000   0.0487  0.00128   3.1295E-07  3.1085E-04  3.1085E-04   89.942
    39   13   0.0136   0.0000   0.0495  0.00128   3.1609E-07  3.1923E-04  3.1923E-04   89.943
    40   14   0.0146   0.0000   0.0503  0.00128   3.1887E-07  3.2769E-04  3.2769E-04   89.944
    41   14   0.0155   0.0000   0.0512  0.00128   3.2133E-07  3.3623E-04  3.3623E-04   89.945
    42   14   0.0164   0.0000   0.0521  0.00128   3.2350E-07  3.4485E-04  3.4485E-04   89.946
    43   15   0.0172   0.0000   0.0531  0.00128   3.2537E-07  3.5359E-04  3.5359E-04   89.947
    44   15   0.0180   0.0000   0.0541  0.00128   3.2700E-07  3.6244E-04  3.6244E-04   89.948
    45   15   0.0187   0.0000   0.0552  0.00128   3.2841E-07  3.7143E-04  3.7143E-04   89.949
    46   16   0.0193   0.0000   0.0563  0.00128   3.2960E-07  3.8060E-04  3.8060E-04   89.950
    47   16   0.0199   0.0000   0.0574  0.00128   3.3063E-07  3.8993E-04  3.8993E-04   89.951
    48   16   0.0204   0.0000   0.0586  0.00128   3.3150E-07  3.9948E-04  3.9948E-04   89.952
    49   17   0.0209   0.0000   0.0598  0.00128   3.3222E-07  4.0927E-04  4.0927E-04   89.953
    50   17   0.0212   0.0000   0.0610  0.00128   3.3284E-07  4.1931E-04  4.1931E-04   89.955
    51   17   0.0215   0.0000   0.0623  0.00128   3.3336E-07  4.2962E-04  4.2962E-04   89.956
    52   18   0.0217   0.0000   0.0635  0.00128   3.3378E-07  4.4025E-04  4.4025E-04   89.957
    53   18   0.0218   0.0000   0.0648  0.00128   3.3416E-07  4.5112E-04  4.5112E-04   89.958
    54   18   0.0220   0.0000   0.0661  0.00128   3.3449E-07  4.6230E-04  4.6230E-04   89.959
    55   19   0.0230   0.0000   0.0667  0.00200   3.3475E-07  4.7273E-04  4.7273E-04   89.959
    56   20   0.0241   0.0000   0.0661  0.00128   3.3449E-07  4.6230E-04  4.6230E-04   89.959
    57   20   0.0242   0.0000   0.0648  0.00128   3.3416E-07  4.5112E-04  4.5112E-04   89.958
    58   20   0.0243   0.0000   0.0635  0.00128   3.3378E-07  4.4025E-04  4.4025E-04   89.957
    59   21   0.0245   0.0000   0.0623  0.00128   3.3336E-07  4.2962E-04  4.2962E-04   89.956
    60   21   0.0248   0.0000   0.0610  0.00128   3.3284E-07  4.1931E-04  4.1931E-04   89.955
    61   21   0.0252   0.0000   0.0598  0.00128   3.3222E-07  4.0927E-04  4.0927E-04   89.953
    62   22   0.0256   0.0000   0.0586  0.00128   3.3150E-07  3.9948E-04  3.9948E-04   89.952
    63   22   0.0262   0.0000   0.0574  0.00128   3.3063E-07  3.8993E-04  3.8993E-04   89.951
    64   22   0.0267   0.0000   0.0563  0.00128   3.2960E-07  3.8060E-04  3.8060E-04   89.950
    65   23   0.0273   0.0000   0.0552  0.00128   3.2841E-07  3.7143E-04  3.7143E-04   89.949
    66   23   0.0281   0.0000   0.0541  0.00128   3.2700E-07  3.6244E-04  3.6244E-04   89.948
    67   23   0.0288   0.0000   0.0531  0.00128   3.2537E-07  3.5359E-04  3.5359E-04   89.947
    68   24   0.0296   0.0000   0.0521  0.00128   3.2350E-07  3.4485E-04  3.4485E-04   89.946
    69   24   0.0305   0.0000   0.0512  0.00128   3.2133E-07  3.3623E-04  3.3623E-04   89.945
    70   24   0.0314   0.0000   0.0503  0.00128   3.1887E-07  3.2769E-04  3.2769E-04   89.944
    71   25   0.0324   0.0000   0.0495  0.00128   3.1609E-07  3.1923E-04  3.1923E-04   89.943
    72   25   0.0335   0.0000   0.0487  0.00128   3.1295E-07  3.1085E-04  3.1085E-04   89.942
    73   25   0.0345   0.0000   0.0480  0.00128   3.0943E-07  3.0253E-04  3.0253E-04   89.941
    74   26   0.0356   0.0000   0.0474  0.00128   3.0553E-07  2.9425E-04  2.9425E-04   89.941
    75   26   0.0368   0.0000   0.0468  0.00128   3.0122E-07  2.8602E-04  2.8602E-04   89.940
    76   26   0.0379   0.0000   0.0463  0.00128   2.9649E-07  2.7783E-04  2.7783E-04   89.939
    77   27   0.0391   0.0000   0.0459  0.00128   2.9134E-07  2.6967E-04  2.6967E-04   89.938
    78   27   0.0404   0.0000   0.0455  0.00128   2.8575E-07  2.6154E-04  2.6154E-04   89.937
    79   27   0.0416   0.0000   0.0452  0.00128   2.7974E-07  2.5343E-04  2.5343E-04   89.937
    80   28   0.0428   0.0000   0.0450  0.00128   2.7328E-07  2.4534E-04  2.4534E-04   89.936
    81   28   0.0441   0.0000   0.0449  0.00128   2.6643E-07  2.3727E-04  2.3727E-04   89.936
    82   28   0.0454   0.0000   0.0448  0.00128   2.5917E-07  2.2921E-04  2.2921E-04   89.935
    83   29   0.0467   0.0000   0.0448  0.00128   2.5151E-07  2.2115E-04  2.2115E-04   89.935
    84   29   0.0479   0.0000   0.0449  0.00128   2.4351E-07  2.1311E-04  2.1311E-04   89.935
    85   29   0.0492   0.0000   0.0450  0.00128   2.3517E-07  2.0507E-04  2.0507E-04   89.934
    86   30   0.0505   0.0000   0.0452  0.00128   2.2650E-07  1.9703E-04  1.9703E-04   89.934
    87   30   0.0517   0.0000   0.0455  0.00128   2.1757E-07  1.8900E-04  1.8900E-04   89.934
    88   30   0.0529   0.0000   0.0459  0.00128   2.0839E-07  1.8096E-04  1.8096E-04   89.934
    89   31   0.0541   0.0000   0.0463  0.00128   1.9897E-07  1.7292E-04  1.7292E-04   89.934
    90   31   0.0553   0.0000   0.0468  0.00128   1.8940E-07  1.6487E-04  1.6487E-04   89.934
    91   31   0.0565   0.0000   0.0474  0.00128   1.7968E-07  1.5682E-04  1.5682E-04   89.934
    92   32   0.0576   0.0000   0.0480  0.00128   1.6981E-07  1.4875E-04  1.4875E-04   89.935
    93   32   0.0586   0.0000   0.0487  0.00128   1.5989E-07  1.4068E-04  1.4068E-04   89.935
    94   32   0.0597   0.0000   0.0495  0.00128   1.4991E-07  1.3259E-04  1.3259E-04   89.935
    95   33   0.0606   0.0000   0.0503  0.00128   1.3987E-07  1.2448E-04  1.2448E-04   89.936
    96   33   0.0615   0.0000   0.0512  0.00128   1.2986E-07  1.1636E-04  1.1636E-04   89.936
    97   33   0.0624   0.0000   0.0521  0.00128   1.1987E-07  1.0822E-04  1.0822E-04   89.937
    98   34   0.0633   0.0000   0.0531  0.00128   1.0990E-07  1.0005E-04  1.0005E-04   89.937
    99   34   0.0640   0.0000   0.0541  0.00128   1.0001E-07  9.1852E-05  9.1852E-05   89.938
   100   34   0.0647   0.0000   0.0552  0.00128   9.0202E-08  8.3622E-05  8.3622E-05   89.938
   101   35   0.0654   0.0000   0.0563  0.00128   8.0457E-08  7.5353E-05  7.5353E-05   89.939
   102   35   0.0659   0.0000   0.0574  0.00128   7.0833E-08  6.7039E-05  6.7039E-05   89.939
   103   35   0.0664   0.0000   0.0586  0.00128   6.1313E-08  5.8669E-05  5.8669E-05   89.940
   104   36   0.0669   0.0000   0.0598  0.00128   5.1879E-08  5.0231E-05  5.0231E-05   89.941
   105   36   0.0672   0.0000   0.0610  0.00128   4.2565E-08  4.1708E-05  4.1708E-05   89.942
   106   36   0.0675   0.0000   0.0623  0.00128   3.3338E-08  3.3071E-05  3.3071E-05   89.942
   107   37   0.0678   0.0000   0.0635  0.00128   2.4149E-08  2.4276E-05  2.4276E-05   89.943
   108   37   0.0679   0.0000   0.0648  0.00128   1.4949E-08  1.5227E-05  1.5227E-05   89.944
   109   37   0.0680   0.0000   0.0661  0.00128   5.3806E-09  5.5511E-06  5.5511E-06   89.944



                                        - - - POWER BUDGET - - -

                                           INPUT POWER   = 1.6737E-07 WATTS
                                           RADIATED POWER= 1.6737E-07 WATTS
                                           STRUCTURE LOSS= 0.0000E+00 WATTS
                                           NETWORK LOSS  = 0.0000E+00 WATTS
                                           EFFICIENCY    = 100.00 PERCENT



                                                - - - RADIATION PATTERNS - - -

  - - ANGLES - -           - POWER GAINS -       - - - POLARIZATION - - -    - - - E(THETA) - - -    - - - E(PHI) - - -
  THETA     PHI        VERT.   HOR.    TOTAL      AXIAL     TILT   SENSE     MAGNITUDE    PHASE      MAGNITUDE    PHASE 
 DEGREES  DEGREES       DB      DB      DB        RATIO     DEG.              VOLTS/M    DEGREES      VOLTS/M    DEGREES
  -90.00     0.00    -999.99 -999.99 -999.99    0.00000     0.00            3.78424E-14   167.51    0.00000E+00     0.00
  -85.00     0.00     -16.55 -999.99  -16.55    0.00000     0.00  LINEAR    4.71335E-04     0.37    0.00000E+00     0.00
  -80.00     0.00     -12.63 -999.99  -12.63    0.00000     0.00  LINEAR    7.39982E-04     9.03    0.00000E+00     0.00
  -75.00     0.00     -10.66 -999.99  -10.66    0.00000     0.00  LINEAR    9.28764E-04    16.15    0.00000E+00     0.00
  -70.00     0.00      -9.27 -999.99   -9.27    0.00000     0.00  LINEAR    1.08967E-03    22.63    0.00000E+00     0.00
  -65.00     0.00      -8.10 -999.99   -8.10    0.00000     0.00  LINEAR    1.24642E-03    28.69    0.00000E+00     0.00
  -60.00     0.00      -7.03 -999.99   -7.03    0.00000     0.00  LINEAR    1.40983E-03    34.30    0.00000E+00     0.00
  -55.00     0.00      -6.02 -999.99   -6.02    0.00000     0.00  LINEAR    1.58360E-03    39.39    0.00000E+00     0.00
  -50.00     0.00      -5.07 -999.99   -5.07    0.00000     0.00  LINEAR    1.76710E-03    43.93    0.00000E+00     0.00
  -45.00     0.00      -4.18 -999.99   -4.18    0.00000     0.00  LINEAR    1.95699E-03    47.91    0.00000E+00     0.00
  -40.00     0.00      -3.37 -999.99   -3.37    0.00000     0.00  LINEAR    2.14832E-03    51.37    0.00000E+00     0.00
  -35.00     0.00      -2.65 -999.99   -2.65    0.00000     0.00  LINEAR    2.33537E-03    54.37    0.00000E+00     0.00
  -30.00     0.00      -2.01 -999.99   -2.01    0.00000     0.00  LINEAR    2.51218E-03    56.94    0.00000E+00     0.00
  -25.00     0.00      -1.48 -999.99   -1.48    0.00000     0.00  LINEAR    2.67297E-03    59.16    0.00000E+00     0.00
  -20.00     0.00      -1.03 -999.99   -1.03    0.00000     0.00  LINEAR    2.81243E-03    61.05    0.00000E+00     0.00
  -15.00     0.00      -0.69 -999.99   -0.69    0.00000     0.00  LINEAR    2.92596E-03    62.65    0.00000E+00     0.00
  -10.00     0.00      -0.44 -999.99   -0.44    0.00000     0.00  LINEAR    3.00983E-03    63.99    0.00000E+00     0.00
   -5.00     0.00      -0.30 -999.99   -0.30    0.00000     0.00  LINEAR    3.06127E-03    65.08    0.00000E+00     0.00
    0.00     0.00      -0.25 -999.99   -0.25    0.00000     0.00  LINEAR    3.07861E-03    65.93    0.00000E+00     0.00
[...]
    5.00     0.00      -1.21 -999.99   -1.21    0.00000     0.00  LINEAR    2.49981E-01   -68.03    0.00000E+00     0.00
   10.00     0.00      -1.16 -999.99   -1.16    0.00000     0.00  LINEAR    2.51521E-01   -73.95    0.00000E+00     0.00
   15.00     0.00      -0.87 -999.99   -0.87    0.00000     0.00  LINEAR    2.60092E-01   -82.71    0.00000E+00     0.00
   20.00     0.00      -1.64 -999.99   -1.64    0.00000    -0.00  LINEAR    2.37930E-01   -91.54    0.00000E+00     0.00
   25.00     0.00      -3.83 -999.99   -3.83    0.00000    -0.00  LINEAR    1.84855E-01  -107.24    0.00000E+00     0.00
   30.00     0.00      -6.11 -999.99   -6.11    0.00000    -0.00  LINEAR    1.42274E-01  -129.73    0.00000E+00     0.00
   35.00     0.00      -8.96 -999.99   -8.96    0.00000    -0.00  LINEAR    1.02480E-01  -138.80    0.00000E+00     0.00
   40.00     0.00     -13.40 -999.99  -13.40    0.00000    -0.00  LINEAR    6.14486E-02  -105.73    0.00000E+00     0.00
   45.00     0.00      -9.57 -999.99   -9.57    0.00000     0.00  LINEAR    9.54994E-02   -70.13    0.00000E+00     0.00
   50.00     0.00      -5.12 -999.99   -5.12    0.00000     0.00  LINEAR    1.59474E-01   -83.41    0.00000E+00     0.00
   55.00     0.00      -1.97 -999.99   -1.97    0.00000    -0.00  LINEAR    2.28950E-01  -103.55    0.00000E+00     0.00
   60.00     0.00      -1.07 -999.99   -1.07    0.00000    -0.00  LINEAR    2.54212E-01  -123.23    0.00000E+00     0.00
   65.00     0.00      -2.03 -999.99   -2.03    0.00000    -0.00  LINEAR    2.27508E-01  -150.56    0.00000E+00     0.00
   70.00     0.00      -2.95 -999.99   -2.95    0.00000    -0.00  LINEAR    2.04583E-01   178.41    0.00000E+00     0.00
   75.00     0.00      -5.13 -999.99   -5.13    0.00000    -0.00  LINEAR    1.59209E-01   161.85    0.00000E+00     0.00
   80.00     0.00     -12.48 -999.99  -12.48    0.00000    -0.00  LINEAR    6.82863E-02   168.08    0.00000E+00     0.00
   85.00     0.00     -21.72 -999.99  -21.72    0.00000    -0.00  LINEAR    2.35686E-02  -108.46    0.00000E+00     0.00
   90.00     0.00    -999.99 -999.99 -999.99    0.00000     0.00            2.69899E-12    98.71    0.00000E+00     0.00







                                 - - - - - - FREQUENCY - - - - - -

                                    FREQUENCY= 5.0000E+01 MHZ
                                    WAVELENGTH= 5.9959E+00 METERS




                    APPROXIMATE INTEGRATION EMPLOYED FOR SEGMENTS MORE THAN   1.000 WAVELENGTHS APART

                    THE EXTENDED THIN WIRE KERNEL WILL BE USED



                               - - - STRUCTURE IMPEDANCE LOADING - - -

                                   THIS STRUCTURE IS NOT LOADED



                                  - - - ANTENNA ENVIRONMENT - - -

                                        FINITE GROUND.  REFLECTION COEFFICIENT APPROXIMATION
                                        RELATIVE DIELECTRIC CONST.=  4.000
                                        CONDUCTIVITY= 3.000E-03 MHOS/METER
                                        COMPLEX DIELECTRIC CONSTANT= 4.00000E+00-1.07853E+00



                                - - - MATRIX TIMING - - -

                        FILL=    156 msec  FACTOR: 47 msec




                                          - - - ANTENNA INPUT PARAMETERS - - -

   TAG   SEG.    VOLTAGE (VOLTS)         CURRENT (AMPS)         IMPEDANCE (OHMS)        ADMITTANCE (MHOS)      POWER
   NO.   NO.    REAL        IMAG.       REAL        IMAG.       REAL        IMAG.       REAL        IMAG.     (WATTS)
    19    55 1.00000E+00 0.00000E+00 5.09164E-03 1.10614E-03 1.87549E+02-4.07443E+01 5.09164E-03 1.10614E-03 2.54582E-03


                             - - - CURRENTS AND LOCATION - - -

                                 DISTANCES IN WAVELENGTHS


  SEG.  TAG    COORD. OF SEG. CENTER     SEG.            - - - CURRENT (AMPS) - - -
  NO.   NO.     X        Y        Z      LENGTH     REAL        IMAG.       MAG.        PHASE
     1    1  -0.5490   0.0000   1.6519  0.03198  -5.3422E-04 -1.2469E-04  5.4858E-04 -166.862
     2    1  -0.5462   0.0000   1.6200  0.03198  -1.4448E-03 -3.4510E-04  1.4855E-03 -166.566
     3    1  -0.5434   0.0000   1.5882  0.03198  -2.2393E-03 -5.4805E-04  2.3054E-03 -166.248
     4    2  -0.5379   0.0000   1.5568  0.03198  -2.9231E-03 -7.3425E-04  3.0139E-03 -165.900
     5    2  -0.5296   0.0000   1.5259  0.03198  -3.4786E-03 -8.9932E-04  3.5930E-03 -165.505
     6    2  -0.5213   0.0000   1.4950  0.03198  -3.8887E-03 -1.0381E-03  4.0248E-03 -165.052
     7    3  -0.5104   0.0000   1.4651  0.03198  -4.1401E-03 -1.1461E-03  4.2958E-03 -164.526
     8    3  -0.4969   0.0000   1.4361  0.03198  -4.2244E-03 -1.2192E-03  4.3968E-03 -163.901
     9    3  -0.4834   0.0000   1.4071  0.03198  -4.1394E-03 -1.2548E-03  4.3254E-03 -163.136
    10    4  -0.4675   0.0000   1.3795  0.03198  -3.8894E-03 -1.2516E-03  4.0858E-03 -162.163
    11    4  -0.4491   0.0000   1.3533  0.03198  -3.4846E-03 -1.2084E-03  3.6882E-03 -160.874
    12    4  -0.4308   0.0000   1.3271  0.03198  -2.9411E-03 -1.1268E-03  3.1496E-03 -159.038
    13    5  -0.4103   0.0000   1.3027  0.03198  -2.2807E-03 -1.0092E-03  2.4940E-03 -156.130
    14    5  -0.3877   0.0000   1.2801  0.03198  -1.5295E-03 -8.5828E-04  1.7538E-03 -150.700
    15    5  -0.3651   0.0000   1.2575  0.03198  -7.1700E-04 -6.7903E-04  9.8751E-04 -136.558
    16    6  -0.3407   0.0000   1.2370  0.03198   1.2470E-04 -4.7761E-04  4.9362E-04  -75.367
    17    6  -0.3145   0.0000   1.2187  0.03198   9.6221E-04 -2.5931E-04  9.9654E-04  -15.083
    18    6  -0.2883   0.0000   1.2003  0.03198   1.7626E-03 -3.1721E-05  1.7629E-03   -1.031
    19    7  -0.2607   0.0000   1.1844  0.03198   2.4943E-03  1.9722E-04  2.5020E-03    4.521
    20    7  -0.2317   0.0000   1.1709  0.03198   3.1280E-03  4.2079E-04  3.1561E-03    7.662
    21    7  -0.2027   0.0000   1.1574  0.03198   3.6386E-03  6.3103E-04  3.6929E-03    9.839
    22    8  -0.1728   0.0000   1.1465  0.03198   4.0060E-03  8.2040E-04  4.0892E-03   11.574
    23    8  -0.1419   0.0000   1.1382  0.03198   4.2150E-03  9.8259E-04  4.3281E-03   13.122
    24    8  -0.1110   0.0000   1.1299  0.03198   4.2572E-03  1.1115E-03  4.4000E-03   14.633
    25    9  -0.0796   0.0000   1.1244  0.03198   4.1306E-03  1.2023E-03  4.3020E-03   16.228
    26    9  -0.0478   0.0000   1.1216  0.03198   3.8398E-03  1.2507E-03  4.0383E-03   18.042
    27    9  -0.0159   0.0000   1.1188  0.03198   3.3957E-03  1.2546E-03  3.6201E-03   20.277
    28   10   0.0159   0.0000   1.1188  0.03198   2.8157E-03  1.2130E-03  3.0659E-03   23.307
    29   10   0.0478   0.0000   1.1216  0.03198   2.1225E-03  1.1256E-03  2.4025E-03   27.938
    30   10   0.0796   0.0000   1.1244  0.03198   1.3433E-03  9.9471E-04  1.6715E-03   36.520
    31   11   0.1110   0.0000   1.1299  0.03198   5.0851E-04  8.2414E-04  9.6839E-04   58.325
    32   11   0.1419   0.0000   1.1382  0.03198  -3.4830E-04  6.1767E-04  7.0911E-04  119.418
    33   11   0.1728   0.0000   1.1465  0.03198  -1.1932E-03  3.8197E-04  1.2529E-03  162.249
    34   12   0.2027   0.0000   1.1574  0.03198  -1.9927E-03  1.2488E-04  1.9966E-03  176.414
    35   12   0.2317   0.0000   1.1709  0.03198  -2.7140E-03 -1.4628E-04  2.7180E-03 -176.915
    36   12   0.2607   0.0000   1.1844  0.03198  -3.3282E-03 -4.2209E-04  3.3548E-03 -172.772
    37   13   0.2883   0.0000   1.2003  0.03198  -3.8100E-03 -6.9274E-04  3.8724E-03 -169.695
    38   13   0.3145   0.0000   1.2187  0.03198  -4.1391E-03 -9.4912E-04  4.2465E-03 -167.085
    39   13   0.3407   0.0000   1.2370  0.03198  -4.3013E-03 -1.1817E-03  4.4607E-03 -164.639
    40   14   0.3651   0.0000   1.2575  0.03198  -4.2887E-03 -1.3815E-03  4.5057E-03 -162.145
    41   14   0.3877   0.0000   1.2801  0.03198  -4.1007E-03 -1.5404E-03  4.3804E-03 -159.412
    42   14   0.4103   0.0000   1.3027  0.03198  -3.7427E-03 -1.6517E-03  4.0909E-03 -156.188
    43   15   0.4308   0.0000   1.3271  0.03198  -3.2267E-03 -1.7102E-03  3.6519E-03 -152.076
    44   15   0.4491   0.0000   1.3533  0.03198  -2.5725E-03 -1.7116E-03  3.0899E-03 -146.363
    45   15   0.4675   0.0000   1.3795  0.03198  -1.8033E-03 -1.6545E-03  2.4473E-03 -137.465
    46   16   0.4834   0.0000   1.4071  0.03198  -9.4663E-04 -1.5393E-03  1.8071E-03 -121.591
    47   16   0.4969   0.0000   1.4361  0.03198  -3.6532E-05 -1.3676E-03  1.3681E-03  -91.530
    48   16   0.5104   0.0000   1.4651  0.03198   8.9385E-04 -1.1440E-03  1.4518E-03  -51.999
    49   17   0.5213   0.0000   1.4950  0.03198   1.8106E-03 -8.7482E-04  2.0109E-03  -25.788
    50   17   0.5296   0.0000   1.5259  0.03198   2.6744E-03 -5.6811E-04  2.7340E-03  -11.993
    51   17   0.5379   0.0000   1.5568  0.03198   3.4514E-03 -2.3375E-04  3.4593E-03   -3.875
    52   18   0.5434   0.0000   1.5882  0.03198   4.1100E-03  1.1706E-04  4.1117E-03    1.631
    53   18   0.5462   0.0000   1.6200  0.03198   4.6154E-03  4.6956E-04  4.6392E-03    5.809
    54   18   0.5490   0.0000   1.6519  0.03198   4.9440E-03  8.1209E-04  5.0103E-03    9.328
    55   19   0.5754   0.0000   1.6678  0.05003   5.0916E-03  1.1061E-03  5.2104E-03   12.257
    56   20   0.6018   0.0000   1.6519  0.03198   4.9440E-03  8.1209E-04  5.0103E-03    9.328
    57   20   0.6046   0.0000   1.6200  0.03198   4.6154E-03  4.6956E-04  4.6392E-03    5.809
    58   20   0.6074   0.0000   1.5882  0.03198   4.1100E-03  1.1706E-04  4.1117E-03    1.631
    59   21   0.6129   0.0000   1.5568  0.03198   3.4514E-03 -2.3375E-04  3.4593E-03   -3.875
    60   21   0.6212   0.0000   1.5259  0.03198   2.6744E-03 -5.6811E-04  2.7340E-03  -11.993
    61   21   0.6295   0.0000   1.4950  0.03198   1.8106E-03 -8.7482E-04  2.0109E-03  -25.788
    62   22   0.6404   0.0000   1.4651  0.03198   8.9385E-04 -1.1440E-03  1.4518E-03  -51.999
    63   22   0.6539   0.0000   1.4361  0.03198  -3.6533E-05 -1.3676E-03  1.3681E-03  -91.530
    64   22   0.6674   0.0000   1.4071  0.03198  -9.4663E-04 -1.5393E-03  1.8071E-03 -121.591
    65   23   0.6833   0.0000   1.3795  0.03198  -1.8033E-03 -1.6545E-03  2.4473E-03 -137.465
    66   23   0.7017   0.0000   1.3533  0.03198  -2.5725E-03 -1.7116E-03  3.0899E-03 -146.363
    67   23   0.7200   0.0000   1.3271  0.03198  -3.2267E-03 -1.7102E-03  3.6519E-03 -152.076
    68   24   0.7405   0.0000   1.3027  0.03198  -3.7427E-03 -1.6517E-03  4.0909E-03 -156.188
    69   24   0.7631   0.0000   1.2801  0.03198  -4.1007E-03 -1.5404E-03  4.3804E-03 -159.412
    70   24   0.7857   0.0000   1.2575  0.03198  -4.2887E-03 -1.3815E-03  4.5057E-03 -162.145
    71   25   0.8101   0.0000   1.2370  0.03198  -4.3013E-03 -1.1817E-03  4.4607E-03 -164.639
    72   25   0.8363   0.0000   1.2187  0.03198  -4.1391E-03 -9.4912E-04  4.2465E-03 -167.085
    73   25   0.8625   0.0000   1.2003  0.03198  -3.8100E-03 -6.9274E-04  3.8724E-03 -169.695
    74   26   0.8901   0.0000   1.1844  0.03198  -3.3282E-03 -4.2209E-04  3.3548E-03 -172.772
    75   26   0.9191   0.0000   1.1709  0.03198  -2.7140E-03 -1.4628E-04  2.7180E-03 -176.915
    76   26   0.9481   0.0000   1.1574  0.03198  -1.9927E-03  1.2488E-04  1.9966E-03  176.414
    77   27   0.9780   0.0000   1.1465  0.03198  -1.1932E-03  3.8197E-04  1.2529E-03  162.249
    78   27   1.0089   0.0000   1.1382  0.03198  -3.4830E-04  6.1767E-04  7.0911E-04  119.418
    79   27   1.0398   0.0000   1.1299  0.03198   5.0851E-04  8.2414E-04  9.6839E-04   58.325
    80   28   1.0711   0.0000   1.1244  0.03198   1.3433E-03  9.9471E-04  1.6715E-03   36.520
    81   28   1.1030   0.0000   1.1216  0.03198   2.1225E-03  1.1256E-03  2.4025E-03   27.938
    82   28   1.1349   0.0000   1.1188  0.03198   2.8157E-03  1.2130E-03  3.0659E-03   23.307
    83   29   1.1667   0.0000   1.1188  0.03198   3.3957E-03  1.2546E-03  3.6201E-03   20.277
    84   29   1.1986   0.0000   1.1216  0.03198   3.8398E-03  1.2507E-03  4.0383E-03   18.042
    85   29   1.2304   0.0000   1.1244  0.03198   4.1306E-03  1.2023E-03  4.3020E-03   16.228
    86   30   1.2618   0.0000   1.1299  0.03198   4.2572E-03  1.1115E-03  4.4000E-03   14.633
    87   30   1.2927   0.0000   1.1382  0.03198   4.2150E-03  9.8259E-04  4.3281E-03   13.122
    88   30   1.3236   0.0000   1.1465  0.03198   4.0060E-03  8.2040E-04  4.0892E-03   11.574
    89   31   1.3535   0.0000   1.1574  0.03198   3.6386E-03  6.3103E-04  3.6929E-03    9.839
    90   31   1.3825   0.0000   1.1709  0.03198   3.1280E-03  4.2079E-04  3.1561E-03    7.662
    91   31   1.4115   0.0000   1.1844  0.03198   2.4943E-03  1.9722E-04  2.5020E-03    4.521
    92   32   1.4391   0.0000   1.2003  0.03198   1.7626E-03 -3.1721E-05  1.7629E-03   -1.031
    93   32   1.4653   0.0000   1.2187  0.03198   9.6221E-04 -2.5931E-04  9.9654E-04  -15.083
    94   32   1.4915   0.0000   1.2370  0.03198   1.2470E-04 -4.7761E-04  4.9362E-04  -75.367
    95   33   1.5159   0.0000   1.2575  0.03198  -7.1700E-04 -6.7903E-04  9.8751E-04 -136.558
    96   33   1.5385   0.0000   1.2801  0.03198  -1.5295E-03 -8.5828E-04  1.7538E-03 -150.700
    97   33   1.5611   0.0000   1.3027  0.03198  -2.2807E-03 -1.0092E-03  2.4940E-03 -156.130
    98   34   1.5816   0.0000   1.3271  0.03198  -2.9411E-03 -1.1268E-03  3.1496E-03 -159.038
    99   34   1.5999   0.0000   1.3533  0.03198  -3.4846E-03 -1.2084E-03  3.6882E-03 -160.874
   100   34   1.6183   0.0000   1.3795  0.03198  -3.8894E-03 -1.2516E-03  4.0858E-03 -162.163
   101   35   1.6342   0.0000   1.4071  0.03198  -4.1394E-03 -1.2548E-03  4.3254E-03 -163.136
   102   35   1.6477   0.0000   1.4361  0.03198  -4.2244E-03 -1.2192E-03  4.3968E-03 -163.901
   103   35   1.6612   0.0000   1.4651  0.03198  -4.1401E-03 -1.1461E-03  4.2958E-03 -164.526
   104   36   1.6721   0.0000   1.4950  0.03198  -3.8887E-03 -1.0381E-03  4.0248E-03 -165.052
   105   36   1.6804   0.0000   1.5259  0.03198  -3.4786E-03 -8.9932E-04  3.5930E-03 -165.505
   106   36   1.6887   0.0000   1.5568  0.03198  -2.9231E-03 -7.3425E-04  3.0139E-03 -165.900
   107   37   1.6942   0.0000   1.5882  0.03198  -2.2393E-03 -5.4805E-04  2.3054E-03 -166.248
   108   37   1.6970   0.0000   1.6200  0.03198  -1.4448E-03 -3.4510E-04  1.4855E-03 -166.566
   109   37   1.6998   0.0000   1.6519  0.03198  -5.3422E-04 -1.2469E-04  5.4858E-04 -166.862



                                        - - - POWER BUDGET - - -

                                           INPUT POWER   = 2.5458E-03 WATTS
                                           RADIATED POWER= 2.5458E-03 WATTS
                                           STRUCTURE LOSS= 0.0000E+00 WATTS
                                           NETWORK LOSS  = 0.0000E+00 WATTS
                                           EFFICIENCY    = 100.00 PERCENT



                                                - - - RADIATION PATTERNS - - -

  - - ANGLES - -           - POWER GAINS -       - - - POLARIZATION - - -    - - - E(THETA) - - -    - - - E(PHI) - - -
  THETA     PHI        VERT.   HOR.    TOTAL      AXIAL     TILT   SENSE     MAGNITUDE    PHASE      MAGNITUDE    PHASE 
 DEGREES  DEGREES       DB      DB      DB        RATIO     DEG.              VOLTS/M    DEGREES      VOLTS/M    DEGREES
  -90.00     0.00    -999.99 -999.99 -999.99    0.00000     0.00            1.01627E-11    42.89    0.00000E+00     0.00
  -85.00     0.00     -11.35 -999.99  -11.35    0.00000    -0.00  LINEAR    1.05724E-01  -135.81    0.00000E+00     0.00
  -80.00     0.00     -20.16 -999.99  -20.16    0.00000    -0.00  LINEAR    3.83655E-02  -157.52    0.00000E+00     0.00
  -75.00     0.00      -9.68 -999.99   -9.68    0.00000    -0.00  LINEAR    1.28211E-01    90.30    0.00000E+00     0.00
  -70.00     0.00      -5.02 -999.99   -5.02    0.00000    -0.00  LINEAR    2.19231E-01   116.12    0.00000E+00     0.00
  -65.00     0.00      -3.44 -999.99   -3.44    0.00000    -0.00  LINEAR    2.63062E-01   163.45    0.00000E+00     0.00
  -60.00     0.00      -1.97 -999.99   -1.97    0.00000    -0.00  LINEAR    3.11492E-01  -150.07    0.00000E+00     0.00
  -55.00     0.00      -2.56 -999.99   -2.56    0.00000    -0.00  LINEAR    2.90801E-01  -109.44    0.00000E+00     0.00
  -50.00     0.00      -5.39 -999.99   -5.39    0.00000     0.00  LINEAR    2.10113E-01   -65.67    0.00000E+00     0.00
  -45.00     0.00      -9.28 -999.99   -9.28    0.00000     0.00  LINEAR    1.34226E-01   -28.29    0.00000E+00     0.00
  -40.00     0.00     -12.25 -999.99  -12.25    0.00000     0.00  LINEAR    9.53214E-02   -35.28    0.00000E+00     0.00
  -35.00     0.00      -8.04 -999.99   -8.04    0.00000     0.00  LINEAR    1.54794E-01   -34.64    0.00000E+00     0.00
  -30.00     0.00      -4.71 -999.99   -4.71    0.00000     0.00  LINEAR    2.27196E-01     5.81    0.00000E+00     0.00
  -25.00     0.00      -1.85 -999.99   -1.85    0.00000     0.00  LINEAR    3.15801E-01    55.00    0.00000E+00     0.00
  -20.00     0.00       0.02 -999.99    0.02    0.00000    -0.00  LINEAR    3.91683E-01    97.68    0.00000E+00     0.00
  -15.00     0.00      -0.04 -999.99   -0.04    0.00000    -0.00  LINEAR    3.89037E-01   137.27    0.00000E+00     0.00
  -10.00     0.00      -1.51 -999.99   -1.51    0.00000    -0.00  LINEAR    3.28470E-01  -178.29    0.00000E+00     0.00
   -5.00     0.00      -2.32 -999.99   -2.32    0.00000    -0.00  LINEAR    2.99084E-01  -130.81    0.00000E+00     0.00
    0.00     0.00      -2.18 -999.99   -2.18    0.00000    -0.00  LINEAR    3.03972E-01  -100.10    0.00000E+00     0.00
    5.00     0.00      -2.32 -999.99   -2.32    0.00000    -0.00  LINEAR    2.99084E-01   -94.71    0.00000E+00     0.00
   10.00     0.00      -1.51 -999.99   -1.51    0.00000    -0.00  LINEAR    3.28470E-01  -106.35    0.00000E+00     0.00
   15.00     0.00      -0.04 -999.99   -0.04    0.00000    -0.00  LINEAR    3.89037E-01  -115.51    0.00000E+00     0.00
   20.00     0.00       0.02 -999.99    0.02    0.00000    -0.00  LINEAR    3.91683E-01  -120.62    0.00000E+00     0.00
   25.00     0.00      -1.85 -999.99   -1.85    0.00000    -0.00  LINEAR    3.15801E-01  -129.91    0.00000E+00     0.00
   30.00     0.00      -4.71 -999.99   -4.71    0.00000    -0.00  LINEAR    2.27196E-01  -147.05    0.00000E+00     0.00
   35.00     0.00      -8.04 -999.99   -8.04    0.00000    -0.00  LINEAR    1.54794E-01  -157.02    0.00000E+00     0.00
   40.00     0.00     -12.25 -999.99  -12.25    0.00000    -0.00  LINEAR    9.53215E-02  -128.98    0.00000E+00     0.00
   45.00     0.00      -9.28 -999.99   -9.28    0.00000    -0.00  LINEAR    1.34226E-01   -95.35    0.00000E+00     0.00
   50.00     0.00      -5.39 -999.99   -5.39    0.00000    -0.00  LINEAR    2.10113E-01  -108.31    0.00000E+00     0.00
   55.00     0.00      -2.56 -999.99   -2.56    0.00000    -0.00  LINEAR    2.90801E-01  -130.08    0.00000E+00     0.00
   60.00     0.00      -1.97 -999.99   -1.97    0.00000    -0.00  LINEAR    3.11492E-01  -151.29    0.00000E+00     0.00
   65.00     0.00      -3.44 -999.99   -3.44    0.00000    -0.00  LINEAR    2.63062E-01   178.92    0.00000E+00     0.00
   70.00     0.00      -5.02 -999.99   -5.02    0.00000    -0.00  LINEAR    2.19231E-01   145.42    0.00000E+00     0.00
   75.00     0.00      -9.68 -999.99   -9.68    0.00000    -0.00  LINEAR    1.28211E-01   130.47    0.00000E+00     0.00
   80.00     0.00     -20.16 -999.99  -20.16    0.00000    -0.00  LINEAR    3.83654E-02  -109.53    0.00000E+00     0.00
   85.00     0.00     -11.35 -999.99  -11.35    0.00000     0.00  LINEAR    1.05724E-01   -83.11    0.00000E+00     0.00
   90.00     0.00    -999.99 -999.99 -999.99    0.00000     0.00            1.01627E-11    97.17    0.00000E+00     0.00



 ***** DATA CARD NO.  8   EN   0    37     1  1000 -9.00000E+01  0.00000E+00  5.00000E+00  0.00000E+00  0.00000E+00  0.00000E+00

 RUN TIME= 12.609